Circuit: * D:\Engineering\PYTHON\Analog-Computer\Simulations\Multiplier_Divider\Mulipier_(opsitive_sides_only).asc

Warning: Multiple definitions of model "2scr375p" Type: BJT
Warning: Multiple definitions of model "bc857b" Type: BJT
Warning: Multiple definitions of model "bc847c" Type: BJT
Warning: Multiple definitions of model "bc847b" Type: BJT
Direct Newton iteration failed to find .op point.  (Use ".option noopiter" to skip.)
Starting Gmin stepping
Gmin = 10
Gmin = 1.07374
vernier = 0.5
vernier = 0.25
vernier = 0.125
vernier = 0.0625
Gmin = 1.08884
vernier = 0.03125
vernier = 0.015625
Gmin = 1.03523
vernier = 0.0078125
vernier = 0.0104167
vernier = 0.00520833
Gmin = 1.02119
vernier = 0.00260417
Gmin = 1.01391
vernier = 0.00347222
vernier = 0.00173611
vernier = 0.00231481
vernier = 0.00115741
Gmin = 1.01142
vernier = 0.00154321
vernier = 0.000771604
Gmin = 1.00928
vernier = 0.00102881
vernier = 0.000514403
Gmin = 1.00759
vernier = 0.00068587
vernier = 0.000514403
Gmin = 1.00638
vernier = 0.00068587
vernier = 0.000514402
Gmin = 0
Gmin = 0
Gmin stepping failed

Starting source stepping with srcstepmethod=0
Source Step = 3.0303%
Source Step = 33.3333%
Source Step = 63.6364%
Source Step = 93.9394%
vernier = 0.25
Source Step = 93.2292%
Source Step = 93.3475%
Source Step = 93.4659%
Source Step = 93.5843%
Source Step = 93.7027%
vernier = 0.00585938
Source Step = 93.8388%
Source Step = 94.0163%
Source Step = 94.1939%
Source Step = 94.3714%
Source Step = 94.549%
vernier = 0.00878906
Source Step = 94.7443%
Source Step = 95.0107%
Source Step = 95.277%
Source Step = 95.5433%
Source Step = 95.8097%
vernier = 0.0131836
Source Step = 96.0893%
Source Step = 96.4888%
Source Step = 96.8883%
Source Step = 97.2878%
Source Step = 97.6873%
Source Step = 98.0868%
vernier = 0.0197754
Source Step = 98.6861%
Source Step = 99.0531%
Source Step = 99.0906%
Source Step = 99.128%
Source Step = 99.1655%
Source Step = 99.2029%
Source Step = 99.2404%
Source Step = 99.2778%
Source Step = 99.3153%
Source Step = 99.3527%
Source Step = 99.3902%
Source Step = 99.4277%
Source Step = 99.4651%
Source Step = 99.5026%
Source Step = 99.54%
Source Step = 99.5775%
Source Step = 99.6149%
Source Step = 99.6524%
Source Step = 99.6898%
Source Step = 99.7273%
Source Step = 99.7647%
Source Step = 99.8022%
Source Step = 99.8396%
Source Step = 99.8771%
Source Step = 99.9146%
Source Step = 99.952%
Source Step = 99.9895%
Source Step = 100%
Source stepping succeeded in finding the operating point.


Date: Fri Oct 18 12:37:57 2024
Total elapsed time: 75.108 seconds.

tnom = 27
temp = 27
method = modified trap
totiter = 2963158
traniter = 2936772
tranpoints = 1141166
accept = 788542
rejected = 352624
matrix size = 164
fillins = 752
solver = Normal
Avg thread counts: 1.0/1.0/1.0/1.0
Matrix Compiler1: 89.55 KB object code size  20.5/11.7/[6.8]
Matrix Compiler2: 26.47 KB object code size  3.7/5.5/[1.9]

