Circuit: * D:\Engineering\PYTHON\Analog-Computer\Simulations\Gilbert Multiplier\Gilbert YouTube.asc

Warning: Multiple definitions of model "2scr375p" Type: BJT
Warning: Multiple definitions of model "bc857b" Type: BJT
Warning: Multiple definitions of model "bc847c" Type: BJT
Warning: Multiple definitions of model "bc847b" Type: BJT
Direct Newton iteration for .op point succeeded.

Date: Fri Oct 18 16:40:07 2024
Total elapsed time: 0.103 seconds.

tnom = 27
temp = 27
method = modified trap
totiter = 4630
traniter = 4625
tranpoints = 1831
accept = 1512
rejected = 319
matrix size = 39
fillins = 77
solver = Normal
Avg thread counts: 1.6/2.5/2.4/1.6
Matrix Compiler1: 7.47 KB object code size  4.0/1.4/[0.9]
Matrix Compiler2: 4.58 KB object code size  0.8/1.0/[0.5]

