Circuit: * D:\Engineering\LTSPICE\Analog Project\power.asc

Warning: Multiple definitions of model "2scr375p" Type: BJT
Warning: Multiple definitions of model "bc857b" Type: BJT
Warning: Multiple definitions of model "bc847c" Type: BJT
Warning: Multiple definitions of model "bc847b" Type: BJT
WARNING: Node N009 is floating.
WARNING: Node NC_01 is floating.

WARNING: Less than two connections to node nc_01.  This node is used by r9.
.OP point found by inspection.
Heightened Def Con from 1.36396e-05 to 1.36406e-05
Heightened Def Con from 1.3898e-05 to 1.38983e-05
Heightened Def Con from 1.39344e-05 to 1.39346e-05
Heightened Def Con from 1.40719e-05 to 1.40721e-05
Heightened Def Con from 1.50112e-05 to 1.50114e-05
Heightened Def Con from 1.50579e-05 to 1.50599e-05
Heightened Def Con from 1.51273e-05 to 1.51284e-05
Heightened Def Con from 1.5293e-05 to 1.52933e-05
Heightened Def Con from 1.54051e-05 to 1.54062e-05
Heightened Def Con from 1.55063e-05 to 1.55083e-05
Heightened Def Con from 1.55378e-05 to 1.55398e-05
Heightened Def Con from 1.61717e-05 to 1.61737e-05
Heightened Def Con from 1.61757e-05 to 1.61769e-05
Heightened Def Con from 1.61865e-05 to 1.61885e-05
Heightened Def Con from 1.6211e-05 to 1.62112e-05
Heightened Def Con from 1.62149e-05 to 1.6216e-05
Heightened Def Con from 1.62311e-05 to 1.62331e-05
Heightened Def Con from 1.63643e-05 to 1.63663e-05
Heightened Def Con from 1.63839e-05 to 1.63842e-05
Heightened Def Con from 1.65212e-05 to 1.65232e-05
Heightened Def Con from 1.66709e-05 to 1.6672e-05
Heightened Def Con from 1.6836e-05 to 1.6838e-05
Heightened Def Con from 1.6986e-05 to 1.6988e-05
Heightened Def Con from 1.69984e-05 to 1.69987e-05
Heightened Def Con from 1.70361e-05 to 1.70363e-05
Heightened Def Con from 1.70591e-05 to 1.70593e-05
Heightened Def Con from 1.70655e-05 to 1.70656e-05
Heightened Def Con from 1.70657e-05 to 1.7066e-05
Heightened Def Con from 1.71024e-05 to 1.71035e-05
Heightened Def Con from 1.78334e-05 to 1.78336e-05
Heightened Def Con from 1.78847e-05 to 1.78867e-05
Heightened Def Con from 1.7889e-05 to 1.7891e-05
Heightened Def Con from 1.79087e-05 to 1.7909e-05
Heightened Def Con from 1.83942e-05 to 1.83944e-05
Heightened Def Con from 1.8395e-05 to 1.8397e-05
Heightened Def Con from 1.88233e-05 to 1.88253e-05
Heightened Def Con from 1.90273e-05 to 1.90293e-05
Heightened Def Con from 1.90711e-05 to 1.90723e-05
Heightened Def Con from 1.91028e-05 to 1.91048e-05
Heightened Def Con from 1.9142e-05 to 1.9144e-05
Heightened Def Con from 1.92523e-05 to 1.92525e-05
Heightened Def Con from 1.92537e-05 to 1.92557e-05
Heightened Def Con from 1.94892e-05 to 1.94912e-05
Heightened Def Con from 1.95273e-05 to 1.95275e-05
Heightened Def Con from 1.95352e-05 to 1.95355e-05
Heightened Def Con from 1.95382e-05 to 1.95385e-05
Heightened Def Con from 1.95387e-05 to 1.95389e-05
Heightened Def Con from 1.99352e-05 to 1.99372e-05
Heightened Def Con from 1.9938e-05 to 1.9938e-05
Heightened Def Con from 1.9938e-05 to 1.994e-05
Heightened Def Con from 2.00751e-05 to 2.00771e-05
Heightened Def Con from 2.0093e-05 to 2.0095e-05
Heightened Def Con from 2.01873e-05 to 2.01875e-05
Heightened Def Con from 2.01878e-05 to 2.01889e-05
Heightened Def Con from 2.01901e-05 to 2.01913e-05
Heightened Def Con from 2.02036e-05 to 2.02039e-05
Heightened Def Con from 2.11256e-05 to 2.11276e-05
Heightened Def Con from 2.11417e-05 to 2.11419e-05
Heightened Def Con from 2.11527e-05 to 2.1153e-05
Heightened Def Con from 2.11622e-05 to 2.11642e-05
Heightened Def Con from 2.17145e-05 to 2.17156e-05
Heightened Def Con from 2.17227e-05 to 2.17247e-05
Heightened Def Con from 2.17269e-05 to 2.17289e-05
Heightened Def Con from 2.17338e-05 to 2.1735e-05
Heightened Def Con from 2.17442e-05 to 2.17453e-05
Heightened Def Con from 2.17468e-05 to 2.17471e-05
Heightened Def Con from 2.17508e-05 to 2.17528e-05
Heightened Def Con from 2.17529e-05 to 2.17549e-05
Heightened Def Con from 2.18619e-05 to 2.18639e-05
Heightened Def Con from 2.18699e-05 to 2.18719e-05
Heightened Def Con from 2.1872e-05 to 2.1874e-05
Heightened Def Con from 2.18761e-05 to 2.18761e-05
Heightened Def Con from 2.18762e-05 to 2.18782e-05
Heightened Def Con from 2.18807e-05 to 2.1881e-05
Heightened Def Con from 2.18854e-05 to 2.18874e-05
Heightened Def Con from 2.18875e-05 to 2.18895e-05
Heightened Def Con from 2.26743e-05 to 2.26745e-05
Heightened Def Con from 2.26749e-05 to 2.2675e-05
Heightened Def Con from 2.26753e-05 to 2.26753e-05
Heightened Def Con from 2.26753e-05 to 2.26754e-05
Heightened Def Con from 2.26754e-05 to 2.26755e-05
Heightened Def Con from 2.26758e-05 to 2.26758e-05
Heightened Def Con from 2.26758e-05 to 2.26778e-05
Heightened Def Con from 2.268e-05 to 2.26801e-05
Heightened Def Con from 2.26803e-05 to 2.26803e-05
Heightened Def Con from 2.26803e-05 to 2.26803e-05
Heightened Def Con from 2.26803e-05 to 2.26803e-05
Heightened Def Con from 2.26803e-05 to 2.26803e-05
Heightened Def Con from 2.26804e-05 to 2.26824e-05
Heightened Def Con from 2.26844e-05 to 2.26864e-05
Heightened Def Con from 2.26873e-05 to 2.26893e-05
Heightened Def Con from 2.26921e-05 to 2.26931e-05
Heightened Def Con from 2.26942e-05 to 2.26962e-05
Heightened Def Con from 2.26965e-05 to 2.26968e-05
Heightened Def Con from 2.26968e-05 to 2.26978e-05
Heightened Def Con from 2.26979e-05 to 2.26979e-05
Heightened Def Con from 2.26992e-05 to 2.27012e-05
Heightened Def Con from 2.28368e-05 to 2.28368e-05
Heightened Def Con from 2.28378e-05 to 2.28379e-05
Heightened Def Con from 2.28383e-05 to 2.28403e-05
Heightened Def Con from 2.28424e-05 to 2.28444e-05
Heightened Def Con from 2.28539e-05 to 2.28559e-05
Heightened Def Con from 2.28619e-05 to 2.28639e-05
Heightened Def Con from 2.28652e-05 to 2.28672e-05
Heightened Def Con from 2.28676e-05 to 2.28696e-05
Heightened Def Con from 2.28848e-05 to 2.28868e-05
Heightened Def Con from 2.28891e-05 to 2.28911e-05
Heightened Def Con from 2.28917e-05 to 2.28917e-05
Heightened Def Con from 2.28925e-05 to 2.28945e-05
Heightened Def Con from 2.29033e-05 to 2.29043e-05
Heightened Def Con from 2.29043e-05 to 2.29043e-05
Heightened Def Con from 2.29043e-05 to 2.29053e-05
Heightened Def Con from 2.29053e-05 to 2.29073e-05
Heightened Def Con from 2.29083e-05 to 2.29094e-05
Heightened Def Con from 2.29123e-05 to 2.29143e-05
Heightened Def Con from 2.29186e-05 to 2.29186e-05
Heightened Def Con from 2.29186e-05 to 2.29206e-05
Heightened Def Con from 2.2967e-05 to 2.2969e-05
Heightened Def Con from 2.29702e-05 to 2.29722e-05
Heightened Def Con from 2.30385e-05 to 2.30395e-05
Heightened Def Con from 2.30398e-05 to 2.30399e-05
Heightened Def Con from 2.30401e-05 to 2.30421e-05
Heightened Def Con from 2.30422e-05 to 2.30423e-05
Heightened Def Con from 2.3043e-05 to 2.3043e-05
Heightened Def Con from 2.3052e-05 to 2.30523e-05
Heightened Def Con from 2.30545e-05 to 2.30546e-05
Heightened Def Con from 2.3055e-05 to 2.3057e-05
Heightened Def Con from 2.30775e-05 to 2.30785e-05
Heightened Def Con from 2.30785e-05 to 2.30795e-05
Heightened Def Con from 2.30798e-05 to 2.30799e-05
Heightened Def Con from 2.30799e-05 to 2.30809e-05
Heightened Def Con from 2.30809e-05 to 2.30829e-05
Heightened Def Con from 2.3085e-05 to 2.3087e-05
Heightened Def Con from 2.30876e-05 to 2.30896e-05
Heightened Def Con from 2.31198e-05 to 2.31198e-05
Heightened Def Con from 2.31198e-05 to 2.31198e-05
Heightened Def Con from 2.31198e-05 to 2.31218e-05
Heightened Def Con from 2.31236e-05 to 2.31246e-05
Heightened Def Con from 2.31247e-05 to 2.31249e-05
Heightened Def Con from 2.31249e-05 to 2.3125e-05
Heightened Def Con from 2.3125e-05 to 2.31252e-05
Heightened Def Con from 2.31262e-05 to 2.31282e-05
Heightened Def Con from 2.31291e-05 to 2.31311e-05
Heightened Def Con from 2.31333e-05 to 2.31334e-05
Heightened Def Con from 2.31334e-05 to 2.31354e-05
Heightened Def Con from 2.31646e-05 to 2.31666e-05
Heightened Def Con from 2.31707e-05 to 2.31708e-05
Heightened Def Con from 2.31742e-05 to 2.31742e-05
Heightened Def Con from 2.31742e-05 to 2.31745e-05
Heightened Def Con from 2.31755e-05 to 2.31765e-05
Heightened Def Con from 2.31765e-05 to 2.31785e-05
Heightened Def Con from 2.319e-05 to 2.3191e-05
Heightened Def Con from 2.3261e-05 to 2.3261e-05
Heightened Def Con from 2.3261e-05 to 2.3261e-05
Heightened Def Con from 2.32613e-05 to 2.32633e-05
Heightened Def Con from 2.32636e-05 to 2.32656e-05
Heightened Def Con from 2.32701e-05 to 2.32721e-05
Heightened Def Con from 2.32725e-05 to 2.32745e-05
Heightened Def Con from 2.32811e-05 to 2.32822e-05
Heightened Def Con from 2.32826e-05 to 2.32826e-05
Heightened Def Con from 2.32826e-05 to 2.32836e-05
Heightened Def Con from 2.32838e-05 to 2.32839e-05
Heightened Def Con from 2.32842e-05 to 2.32842e-05
Heightened Def Con from 2.32843e-05 to 2.32845e-05
Heightened Def Con from 2.32847e-05 to 2.32858e-05
Heightened Def Con from 2.34896e-05 to 2.34896e-05
Heightened Def Con from 2.34897e-05 to 2.34917e-05
Heightened Def Con from 2.34917e-05 to 2.34917e-05
Heightened Def Con from 2.34917e-05 to 2.3492e-05
Heightened Def Con from 2.3492e-05 to 2.3494e-05
Heightened Def Con from 2.35003e-05 to 2.35006e-05
Heightened Def Con from 2.35017e-05 to 2.35037e-05
Heightened Def Con from 2.35075e-05 to 2.35076e-05
Heightened Def Con from 2.35077e-05 to 2.35087e-05
Heightened Def Con from 2.35095e-05 to 2.35105e-05
Heightened Def Con from 2.35105e-05 to 2.35117e-05
Heightened Def Con from 2.35891e-05 to 2.35911e-05
Heightened Def Con from 2.36201e-05 to 2.36201e-05
Heightened Def Con from 2.36202e-05 to 2.36203e-05
Heightened Def Con from 2.36214e-05 to 2.36214e-05
Heightened Def Con from 2.36214e-05 to 2.36214e-05
Heightened Def Con from 2.36214e-05 to 2.36234e-05
Heightened Def Con from 2.36395e-05 to 2.36395e-05
Heightened Def Con from 2.36395e-05 to 2.36395e-05
Heightened Def Con from 2.36395e-05 to 2.36415e-05
Heightened Def Con from 2.36589e-05 to 2.36609e-05
Heightened Def Con from 2.36627e-05 to 2.36628e-05
Heightened Def Con from 2.36628e-05 to 2.36629e-05
Heightened Def Con from 2.36631e-05 to 2.36633e-05
Heightened Def Con from 2.36637e-05 to 2.36648e-05
Heightened Def Con from 2.36659e-05 to 2.36661e-05
Heightened Def Con from 2.36664e-05 to 2.36684e-05
Heightened Def Con from 2.36686e-05 to 2.36689e-05
Heightened Def Con from 2.36691e-05 to 2.36691e-05
Heightened Def Con from 2.36692e-05 to 2.36712e-05
Heightened Def Con from 2.36712e-05 to 2.36732e-05
Heightened Def Con from 2.36734e-05 to 2.36734e-05
Heightened Def Con from 2.36734e-05 to 2.36734e-05
Heightened Def Con from 2.36734e-05 to 2.36754e-05
Heightened Def Con from 2.36768e-05 to 2.36788e-05
Heightened Def Con from 2.36792e-05 to 2.36794e-05
Heightened Def Con from 2.36794e-05 to 2.36804e-05
Heightened Def Con from 2.36805e-05 to 2.36825e-05
Heightened Def Con from 2.36845e-05 to 2.36846e-05
Heightened Def Con from 2.36852e-05 to 2.36872e-05
Heightened Def Con from 2.3696e-05 to 2.3696e-05
Heightened Def Con from 2.36961e-05 to 2.36971e-05
Heightened Def Con from 2.36971e-05 to 2.36971e-05
Heightened Def Con from 2.36971e-05 to 2.36972e-05
Heightened Def Con from 2.36972e-05 to 2.36992e-05
Heightened Def Con from 2.36994e-05 to 2.36995e-05
Heightened Def Con from 2.36995e-05 to 2.37006e-05
Heightened Def Con from 2.3707e-05 to 2.3709e-05
Heightened Def Con from 2.38273e-05 to 2.38275e-05
Heightened Def Con from 2.38275e-05 to 2.38277e-05
Heightened Def Con from 2.38364e-05 to 2.38384e-05
Heightened Def Con from 2.38439e-05 to 2.38442e-05
Heightened Def Con from 2.38443e-05 to 2.38443e-05
Heightened Def Con from 2.38443e-05 to 2.38463e-05
Heightened Def Con from 2.38463e-05 to 2.38474e-05
Heightened Def Con from 2.3848e-05 to 2.38491e-05
Heightened Def Con from 2.38491e-05 to 2.38491e-05
Heightened Def Con from 2.38491e-05 to 2.38501e-05
Heightened Def Con from 2.38502e-05 to 2.38504e-05
Heightened Def Con from 2.40271e-05 to 2.40291e-05
Heightened Def Con from 2.40299e-05 to 2.40301e-05
Heightened Def Con from 2.40301e-05 to 2.40303e-05
Heightened Def Con from 2.40318e-05 to 2.40318e-05
Heightened Def Con from 2.40318e-05 to 2.4033e-05
Heightened Def Con from 2.4041e-05 to 2.4042e-05
Heightened Def Con from 2.4042e-05 to 2.40421e-05
Heightened Def Con from 2.40421e-05 to 2.40441e-05
Heightened Def Con from 2.40441e-05 to 2.40442e-05
Heightened Def Con from 2.40443e-05 to 2.40444e-05
Heightened Def Con from 2.40446e-05 to 2.40449e-05
Heightened Def Con from 2.40451e-05 to 2.40461e-05
Heightened Def Con from 2.40462e-05 to 2.40464e-05
Heightened Def Con from 2.40485e-05 to 2.40505e-05
Heightened Def Con from 2.40514e-05 to 2.40515e-05
Heightened Def Con from 2.40521e-05 to 2.40523e-05
Heightened Def Con from 2.40529e-05 to 2.4054e-05
Heightened Def Con from 2.41293e-05 to 2.41313e-05
Heightened Def Con from 2.4134e-05 to 2.4136e-05
Heightened Def Con from 2.41434e-05 to 2.41445e-05
Heightened Def Con from 2.41489e-05 to 2.41509e-05
Heightened Def Con from 2.41575e-05 to 2.41586e-05
Heightened Def Con from 2.41661e-05 to 2.41672e-05
Heightened Def Con from 2.41672e-05 to 2.41675e-05
Heightened Def Con from 2.41828e-05 to 2.41848e-05
Heightened Def Con from 2.42153e-05 to 2.42173e-05
Heightened Def Con from 2.42308e-05 to 2.42309e-05
Heightened Def Con from 2.42309e-05 to 2.42329e-05
Heightened Def Con from 2.42354e-05 to 2.42374e-05
Heightened Def Con from 2.42673e-05 to 2.42684e-05
Heightened Def Con from 2.42695e-05 to 2.42697e-05
Heightened Def Con from 2.42697e-05 to 2.42699e-05
Heightened Def Con from 2.43653e-05 to 2.43664e-05
Heightened Def Con from 2.43665e-05 to 2.43666e-05
Heightened Def Con from 2.43666e-05 to 2.43686e-05
Heightened Def Con from 2.43699e-05 to 2.43699e-05
Heightened Def Con from 2.43699e-05 to 2.43699e-05
Heightened Def Con from 2.43699e-05 to 2.43699e-05
Heightened Def Con from 2.43699e-05 to 2.43699e-05
Heightened Def Con from 2.43699e-05 to 2.43699e-05
Heightened Def Con from 2.43699e-05 to 2.43719e-05
Heightened Def Con from 2.44049e-05 to 2.44069e-05
Heightened Def Con from 2.441e-05 to 2.44112e-05
Heightened Def Con from 2.44116e-05 to 2.44117e-05
Heightened Def Con from 2.4412e-05 to 2.44121e-05
Heightened Def Con from 2.44121e-05 to 2.44124e-05
Heightened Def Con from 2.44145e-05 to 2.44146e-05
Heightened Def Con from 2.44146e-05 to 2.44147e-05
Heightened Def Con from 2.44149e-05 to 2.44169e-05
Heightened Def Con from 2.4417e-05 to 2.4417e-05
Heightened Def Con from 2.4417e-05 to 2.44171e-05
Heightened Def Con from 2.44172e-05 to 2.44172e-05
Heightened Def Con from 2.44172e-05 to 2.44184e-05
Heightened Def Con from 2.44186e-05 to 2.44206e-05
Heightened Def Con from 2.44208e-05 to 2.44228e-05
Heightened Def Con from 2.44229e-05 to 2.4424e-05
Heightened Def Con from 2.44264e-05 to 2.44264e-05
Heightened Def Con from 2.44264e-05 to 2.44284e-05
Heightened Def Con from 2.44328e-05 to 2.44339e-05
Heightened Def Con from 2.44341e-05 to 2.44353e-05
Heightened Def Con from 2.44365e-05 to 2.44376e-05
Heightened Def Con from 2.44376e-05 to 2.44396e-05
Heightened Def Con from 2.45174e-05 to 2.45185e-05
Heightened Def Con from 2.45188e-05 to 2.45208e-05
Heightened Def Con from 2.45244e-05 to 2.45255e-05
Heightened Def Con from 2.45256e-05 to 2.45256e-05
Heightened Def Con from 2.45257e-05 to 2.45257e-05
Heightened Def Con from 2.45257e-05 to 2.45257e-05
Heightened Def Con from 2.45257e-05 to 2.45258e-05
Heightened Def Con from 2.45259e-05 to 2.4527e-05
Heightened Def Con from 2.4527e-05 to 2.45272e-05
Heightened Def Con from 2.45308e-05 to 2.45328e-05
Heightened Def Con from 2.45372e-05 to 2.45372e-05
Heightened Def Con from 2.45372e-05 to 2.45392e-05
Heightened Def Con from 2.45392e-05 to 2.45412e-05
Heightened Def Con from 2.46403e-05 to 2.46403e-05
Heightened Def Con from 2.46404e-05 to 2.46405e-05
Heightened Def Con from 2.46405e-05 to 2.46407e-05
Heightened Def Con from 2.46418e-05 to 2.46438e-05
Heightened Def Con from 2.46768e-05 to 2.46788e-05
Heightened Def Con from 2.47158e-05 to 2.4716e-05
Heightened Def Con from 2.47163e-05 to 2.47183e-05
Heightened Def Con from 2.4863e-05 to 2.4863e-05
Heightened Def Con from 2.4863e-05 to 2.4864e-05
Heightened Def Con from 2.4864e-05 to 2.4866e-05
Heightened Def Con from 2.48805e-05 to 2.48806e-05
Heightened Def Con from 2.48806e-05 to 2.48826e-05
Heightened Def Con from 2.48843e-05 to 2.48854e-05
Heightened Def Con from 2.48866e-05 to 2.48876e-05
Heightened Def Con from 2.48876e-05 to 2.48876e-05
Heightened Def Con from 2.48876e-05 to 2.48878e-05
Heightened Def Con from 2.4888e-05 to 2.48891e-05
Heightened Def Con from 2.48943e-05 to 2.48963e-05
Heightened Def Con from 2.48989e-05 to 2.49009e-05
Heightened Def Con from 2.49047e-05 to 2.49067e-05
Heightened Def Con from 2.4907e-05 to 2.49081e-05
Heightened Def Con from 2.49089e-05 to 2.49089e-05
Heightened Def Con from 2.49089e-05 to 2.49091e-05
Heightened Def Con from 2.49092e-05 to 2.49093e-05
Heightened Def Con from 2.49093e-05 to 2.49113e-05
Heightened Def Con from 2.49119e-05 to 2.49129e-05
Heightened Def Con from 2.49129e-05 to 2.49149e-05
Heightened Def Con from 2.4918e-05 to 2.492e-05
Heightened Def Con from 2.49225e-05 to 2.49237e-05
Heightened Def Con from 2.49237e-05 to 2.49247e-05
Heightened Def Con from 2.49259e-05 to 2.49279e-05
Heightened Def Con from 2.51415e-05 to 2.51416e-05
Heightened Def Con from 2.51419e-05 to 2.51429e-05
Heightened Def Con from 2.51429e-05 to 2.51449e-05
Heightened Def Con from 2.5145e-05 to 2.51452e-05
Heightened Def Con from 2.51453e-05 to 2.51473e-05
Heightened Def Con from 2.51505e-05 to 2.51505e-05
Heightened Def Con from 2.51506e-05 to 2.51506e-05
Heightened Def Con from 2.51506e-05 to 2.51517e-05
Heightened Def Con from 2.51521e-05 to 2.51541e-05
Heightened Def Con from 2.51548e-05 to 2.51568e-05
Heightened Def Con from 2.51569e-05 to 2.51589e-05
Heightened Def Con from 2.51968e-05 to 2.51979e-05
Heightened Def Con from 2.51979e-05 to 2.5198e-05
Heightened Def Con from 2.5198e-05 to 2.5199e-05
Heightened Def Con from 2.51995e-05 to 2.52006e-05
Heightened Def Con from 2.52006e-05 to 2.52018e-05
Heightened Def Con from 2.5202e-05 to 2.5203e-05
Heightened Def Con from 2.5203e-05 to 2.52042e-05
Heightened Def Con from 2.52043e-05 to 2.52045e-05
Heightened Def Con from 2.52135e-05 to 2.52135e-05
Heightened Def Con from 2.52135e-05 to 2.52155e-05
Heightened Def Con from 2.5278e-05 to 2.528e-05
Heightened Def Con from 2.52808e-05 to 2.52818e-05
Heightened Def Con from 2.52818e-05 to 2.52838e-05
Heightened Def Con from 2.529e-05 to 2.52901e-05
Heightened Def Con from 2.52901e-05 to 2.52911e-05
Heightened Def Con from 2.52912e-05 to 2.52932e-05
Heightened Def Con from 2.52975e-05 to 2.52986e-05
Heightened Def Con from 2.52989e-05 to 2.53009e-05
Heightened Def Con from 2.53038e-05 to 2.53058e-05
Heightened Def Con from 2.53508e-05 to 2.53528e-05
Heightened Def Con from 2.53729e-05 to 2.53729e-05
Heightened Def Con from 2.5373e-05 to 2.5373e-05
Heightened Def Con from 2.5373e-05 to 2.5375e-05
Heightened Def Con from 2.57476e-05 to 2.57476e-05
Heightened Def Con from 2.57477e-05 to 2.57488e-05
Heightened Def Con from 2.57489e-05 to 2.57509e-05
Heightened Def Con from 2.57888e-05 to 2.57908e-05
Heightened Def Con from 2.58048e-05 to 2.58049e-05
Heightened Def Con from 2.58049e-05 to 2.58049e-05
Heightened Def Con from 2.5805e-05 to 2.58052e-05
Heightened Def Con from 2.58069e-05 to 2.58089e-05
Heightened Def Con from 2.5823e-05 to 2.5824e-05
Heightened Def Con from 2.5824e-05 to 2.58241e-05
Heightened Def Con from 2.58241e-05 to 2.58261e-05
Heightened Def Con from 2.58324e-05 to 2.58344e-05
Heightened Def Con from 2.58345e-05 to 2.58345e-05
Heightened Def Con from 2.58345e-05 to 2.58345e-05
Heightened Def Con from 2.58345e-05 to 2.58346e-05
Heightened Def Con from 2.58346e-05 to 2.58347e-05
Heightened Def Con from 2.58361e-05 to 2.58372e-05
Heightened Def Con from 2.58373e-05 to 2.58393e-05
Heightened Def Con from 2.58415e-05 to 2.58415e-05
Heightened Def Con from 2.58415e-05 to 2.58425e-05
Heightened Def Con from 2.58425e-05 to 2.58427e-05
Heightened Def Con from 2.58738e-05 to 2.58738e-05
Heightened Def Con from 2.58738e-05 to 2.5874e-05
Heightened Def Con from 2.58741e-05 to 2.58761e-05
Heightened Def Con from 2.588e-05 to 2.58811e-05
Heightened Def Con from 2.58811e-05 to 2.58831e-05
Heightened Def Con from 2.58866e-05 to 2.58866e-05
Heightened Def Con from 2.58866e-05 to 2.58866e-05
Heightened Def Con from 2.58866e-05 to 2.58869e-05
Heightened Def Con from 2.58945e-05 to 2.58945e-05
Heightened Def Con from 2.58945e-05 to 2.58955e-05
Heightened Def Con from 2.58955e-05 to 2.58955e-05
Heightened Def Con from 2.58956e-05 to 2.58956e-05
Heightened Def Con from 2.58956e-05 to 2.58966e-05
Heightened Def Con from 2.58966e-05 to 2.58977e-05
Heightened Def Con from 2.59024e-05 to 2.59044e-05
Heightened Def Con from 2.64126e-05 to 2.64129e-05
Heightened Def Con from 2.64151e-05 to 2.64162e-05
Heightened Def Con from 2.64325e-05 to 2.64336e-05
Heightened Def Con from 2.64337e-05 to 2.64337e-05
Heightened Def Con from 2.64337e-05 to 2.64337e-05
Heightened Def Con from 2.64338e-05 to 2.6434e-05
Heightened Def Con from 2.64348e-05 to 2.64349e-05
Heightened Def Con from 2.6436e-05 to 2.64371e-05
Heightened Def Con from 2.64371e-05 to 2.64382e-05
Heightened Def Con from 2.64382e-05 to 2.64385e-05
Heightened Def Con from 2.64387e-05 to 2.64399e-05
Heightened Def Con from 2.6441e-05 to 2.64411e-05
Heightened Def Con from 2.64412e-05 to 2.64413e-05
Heightened Def Con from 2.64414e-05 to 2.64434e-05
Heightened Def Con from 2.64434e-05 to 2.64434e-05
Heightened Def Con from 2.64434e-05 to 2.64435e-05
Heightened Def Con from 2.64436e-05 to 2.64436e-05
Heightened Def Con from 2.64436e-05 to 2.64438e-05
Heightened Def Con from 2.64438e-05 to 2.64441e-05
Heightened Def Con from 2.64442e-05 to 2.64444e-05
Heightened Def Con from 2.64444e-05 to 2.64445e-05
Heightened Def Con from 2.64446e-05 to 2.64447e-05
Heightened Def Con from 2.6445e-05 to 2.64452e-05
Heightened Def Con from 2.64454e-05 to 2.64454e-05
Heightened Def Con from 2.64454e-05 to 2.64454e-05
Heightened Def Con from 2.64454e-05 to 2.64454e-05
Heightened Def Con from 2.64454e-05 to 2.64466e-05
Heightened Def Con from 2.64484e-05 to 2.64494e-05
Heightened Def Con from 2.64494e-05 to 2.64494e-05
Heightened Def Con from 2.64505e-05 to 2.64515e-05
Heightened Def Con from 2.64516e-05 to 2.64517e-05
Heightened Def Con from 2.64517e-05 to 2.64537e-05
Heightened Def Con from 2.64588e-05 to 2.64588e-05
Heightened Def Con from 2.64588e-05 to 2.6459e-05
Heightened Def Con from 2.6459e-05 to 2.64601e-05
Heightened Def Con from 2.64604e-05 to 2.64615e-05
Heightened Def Con from 2.64615e-05 to 2.64635e-05
Heightened Def Con from 2.64642e-05 to 2.64662e-05
Heightened Def Con from 2.64664e-05 to 2.64664e-05
Heightened Def Con from 2.64664e-05 to 2.64666e-05
Heightened Def Con from 2.64668e-05 to 2.64668e-05
Heightened Def Con from 2.64668e-05 to 2.64688e-05
Heightened Def Con from 2.64688e-05 to 2.6469e-05
Heightened Def Con from 2.6469e-05 to 2.6469e-05
Heightened Def Con from 2.6469e-05 to 2.64701e-05
Heightened Def Con from 2.64702e-05 to 2.64703e-05
Heightened Def Con from 2.64708e-05 to 2.64718e-05
Heightened Def Con from 2.64718e-05 to 2.64728e-05
Heightened Def Con from 2.64728e-05 to 2.64738e-05
Heightened Def Con from 2.64739e-05 to 2.64739e-05
Heightened Def Con from 2.64739e-05 to 2.64739e-05
Heightened Def Con from 2.64739e-05 to 2.6475e-05
Heightened Def Con from 2.6475e-05 to 2.6476e-05
Heightened Def Con from 2.6476e-05 to 2.64771e-05
Heightened Def Con from 2.64771e-05 to 2.64772e-05
Heightened Def Con from 2.64773e-05 to 2.64793e-05
Heightened Def Con from 2.64796e-05 to 2.64807e-05
Heightened Def Con from 2.64808e-05 to 2.64808e-05
Heightened Def Con from 2.6481e-05 to 2.64812e-05
Heightened Def Con from 2.64813e-05 to 2.64833e-05
Heightened Def Con from 2.64855e-05 to 2.64865e-05
Heightened Def Con from 2.64865e-05 to 2.64885e-05
Heightened Def Con from 2.64886e-05 to 2.64896e-05
Heightened Def Con from 2.64897e-05 to 2.64917e-05
Heightened Def Con from 2.6492e-05 to 2.6494e-05
Heightened Def Con from 2.65386e-05 to 2.65386e-05
Heightened Def Con from 2.65387e-05 to 2.65407e-05
Heightened Def Con from 2.65707e-05 to 2.65717e-05
Heightened Def Con from 2.65718e-05 to 2.65728e-05
Heightened Def Con from 2.65728e-05 to 2.65729e-05
Heightened Def Con from 2.65729e-05 to 2.65729e-05
Heightened Def Con from 2.65729e-05 to 2.65739e-05
Heightened Def Con from 2.65741e-05 to 2.65742e-05
Heightened Def Con from 2.65742e-05 to 2.65742e-05
Heightened Def Con from 2.65743e-05 to 2.65753e-05
Heightened Def Con from 2.65753e-05 to 2.65753e-05
Heightened Def Con from 2.65753e-05 to 2.65754e-05
Heightened Def Con from 2.65757e-05 to 2.65757e-05
Heightened Def Con from 2.65757e-05 to 2.65777e-05
Heightened Def Con from 2.65777e-05 to 2.65777e-05
Heightened Def Con from 2.65777e-05 to 2.65778e-05
Heightened Def Con from 2.65778e-05 to 2.65778e-05
Heightened Def Con from 2.65778e-05 to 2.65788e-05
Heightened Def Con from 2.65788e-05 to 2.65808e-05
Heightened Def Con from 2.65814e-05 to 2.65824e-05
Heightened Def Con from 2.65824e-05 to 2.65825e-05
Heightened Def Con from 2.65825e-05 to 2.65845e-05
Heightened Def Con from 2.65849e-05 to 2.65851e-05
Heightened Def Con from 2.65851e-05 to 2.65871e-05
Heightened Def Con from 2.65871e-05 to 2.65871e-05
Heightened Def Con from 2.65871e-05 to 2.65872e-05
Heightened Def Con from 2.65873e-05 to 2.65873e-05
Heightened Def Con from 2.65873e-05 to 2.65876e-05
Heightened Def Con from 2.65879e-05 to 2.65899e-05
Heightened Def Con from 2.66005e-05 to 2.66006e-05
Heightened Def Con from 2.66007e-05 to 2.66017e-05
Heightened Def Con from 2.66017e-05 to 2.66019e-05
Heightened Def Con from 2.661e-05 to 2.6612e-05
Heightened Def Con from 2.66127e-05 to 2.66137e-05
Heightened Def Con from 2.66138e-05 to 2.66139e-05
Heightened Def Con from 2.66139e-05 to 2.66159e-05
Heightened Def Con from 2.6623e-05 to 2.66231e-05
Heightened Def Con from 2.66231e-05 to 2.66242e-05
Heightened Def Con from 2.66248e-05 to 2.66248e-05
Heightened Def Con from 2.66248e-05 to 2.66268e-05
Heightened Def Con from 2.6627e-05 to 2.66273e-05
Heightened Def Con from 2.66277e-05 to 2.66277e-05
Heightened Def Con from 2.66277e-05 to 2.66288e-05
Heightened Def Con from 2.663e-05 to 2.663e-05
Heightened Def Con from 2.663e-05 to 2.6632e-05
Heightened Def Con from 2.66341e-05 to 2.66352e-05
Heightened Def Con from 2.66355e-05 to 2.66375e-05
Heightened Def Con from 2.66405e-05 to 2.66405e-05
Heightened Def Con from 2.66405e-05 to 2.66425e-05
Heightened Def Con from 2.66431e-05 to 2.66431e-05
Heightened Def Con from 2.66431e-05 to 2.66432e-05
Heightened Def Con from 2.66432e-05 to 2.66452e-05
Heightened Def Con from 2.6656e-05 to 2.6658e-05
Heightened Def Con from 2.6658e-05 to 2.66591e-05
Heightened Def Con from 2.66596e-05 to 2.66597e-05
Heightened Def Con from 2.66597e-05 to 2.66617e-05
Heightened Def Con from 2.66644e-05 to 2.66664e-05
Heightened Def Con from 2.66667e-05 to 2.6667e-05
Heightened Def Con from 2.66676e-05 to 2.66678e-05
Heightened Def Con from 2.66685e-05 to 2.66685e-05
Heightened Def Con from 2.66685e-05 to 2.66705e-05
Heightened Def Con from 2.66706e-05 to 2.66706e-05
Heightened Def Con from 2.66706e-05 to 2.66706e-05
Heightened Def Con from 2.66706e-05 to 2.66726e-05
Heightened Def Con from 2.66746e-05 to 2.66757e-05
Heightened Def Con from 2.66761e-05 to 2.66781e-05
Heightened Def Con from 2.66898e-05 to 2.66918e-05
Heightened Def Con from 2.66938e-05 to 2.6694e-05
Heightened Def Con from 2.66941e-05 to 2.66953e-05
Heightened Def Con from 2.6696e-05 to 2.66963e-05
Heightened Def Con from 2.66974e-05 to 2.66976e-05
Heightened Def Con from 2.66977e-05 to 2.66997e-05
Heightened Def Con from 2.67001e-05 to 2.67003e-05
Heightened Def Con from 2.67008e-05 to 2.67009e-05
Heightened Def Con from 2.67009e-05 to 2.67012e-05
Heightened Def Con from 2.67074e-05 to 2.67094e-05
Heightened Def Con from 2.71702e-05 to 2.71703e-05
Heightened Def Con from 2.71703e-05 to 2.71715e-05
Heightened Def Con from 2.71722e-05 to 2.71723e-05
Heightened Def Con from 2.71723e-05 to 2.71723e-05
Heightened Def Con from 2.71723e-05 to 2.71743e-05
Heightened Def Con from 2.71816e-05 to 2.71818e-05
Heightened Def Con from 2.71824e-05 to 2.71824e-05
Heightened Def Con from 2.71824e-05 to 2.71834e-05
Heightened Def Con from 2.71834e-05 to 2.71834e-05
Heightened Def Con from 2.71834e-05 to 2.71836e-05
Heightened Def Con from 2.71877e-05 to 2.71877e-05
Heightened Def Con from 2.71877e-05 to 2.71888e-05
Heightened Def Con from 2.71889e-05 to 2.71889e-05
Heightened Def Con from 2.71889e-05 to 2.71892e-05
Heightened Def Con from 2.71901e-05 to 2.71911e-05
Heightened Def Con from 2.71911e-05 to 2.71912e-05
Heightened Def Con from 2.71912e-05 to 2.71912e-05
Heightened Def Con from 2.71912e-05 to 2.71913e-05
Heightened Def Con from 2.71913e-05 to 2.71923e-05
Heightened Def Con from 2.71923e-05 to 2.71925e-05
Heightened Def Con from 2.71933e-05 to 2.71933e-05
Heightened Def Con from 2.71933e-05 to 2.71934e-05
Heightened Def Con from 2.71935e-05 to 2.71936e-05
Heightened Def Con from 2.71936e-05 to 2.71947e-05
Heightened Def Con from 2.71947e-05 to 2.71958e-05
Heightened Def Con from 2.71961e-05 to 2.71981e-05
Heightened Def Con from 2.71986e-05 to 2.71986e-05
Heightened Def Con from 2.71986e-05 to 2.72006e-05
Heightened Def Con from 2.72567e-05 to 2.72587e-05
Heightened Def Con from 2.72608e-05 to 2.72608e-05
Heightened Def Con from 2.72608e-05 to 2.7262e-05
Heightened Def Con from 2.7262e-05 to 2.72622e-05
Heightened Def Con from 2.72629e-05 to 2.72649e-05
Heightened Def Con from 2.72859e-05 to 2.72861e-05
Heightened Def Con from 2.72863e-05 to 2.72883e-05
Heightened Def Con from 2.72884e-05 to 2.72904e-05
Heightened Def Con from 2.72926e-05 to 2.72927e-05
Heightened Def Con from 2.72927e-05 to 2.72929e-05
Heightened Def Con from 2.72929e-05 to 2.72949e-05
Heightened Def Con from 2.74236e-05 to 2.74238e-05
Heightened Def Con from 2.74257e-05 to 2.74258e-05
Heightened Def Con from 2.74258e-05 to 2.74258e-05
Heightened Def Con from 2.74258e-05 to 2.74261e-05
Heightened Def Con from 2.74272e-05 to 2.74272e-05
Heightened Def Con from 2.74272e-05 to 2.74274e-05
Heightened Def Con from 2.74274e-05 to 2.74276e-05
Heightened Def Con from 2.74279e-05 to 2.74299e-05
Heightened Def Con from 2.74299e-05 to 2.743e-05
Heightened Def Con from 2.743e-05 to 2.74302e-05
Heightened Def Con from 2.74302e-05 to 2.74302e-05
Heightened Def Con from 2.74302e-05 to 2.74313e-05
Heightened Def Con from 2.74352e-05 to 2.74362e-05
Heightened Def Con from 2.74362e-05 to 2.74362e-05
Heightened Def Con from 2.74362e-05 to 2.74365e-05
Heightened Def Con from 2.74368e-05 to 2.74378e-05
Heightened Def Con from 2.74378e-05 to 2.7438e-05
Heightened Def Con from 2.7438e-05 to 2.7438e-05
Heightened Def Con from 2.74381e-05 to 2.74401e-05
Heightened Def Con from 2.7443e-05 to 2.7443e-05
Heightened Def Con from 2.7443e-05 to 2.74432e-05
Heightened Def Con from 2.74432e-05 to 2.74432e-05
Heightened Def Con from 2.74432e-05 to 2.74432e-05
Heightened Def Con from 2.74432e-05 to 2.74444e-05
Heightened Def Con from 2.74444e-05 to 2.74456e-05
Heightened Def Con from 2.75093e-05 to 2.75113e-05
Heightened Def Con from 2.76933e-05 to 2.76933e-05
Heightened Def Con from 2.76933e-05 to 2.76933e-05
Heightened Def Con from 2.76934e-05 to 2.76934e-05
Heightened Def Con from 2.76934e-05 to 2.76934e-05
Heightened Def Con from 2.76934e-05 to 2.76935e-05
Heightened Def Con from 2.76935e-05 to 2.76936e-05
Heightened Def Con from 2.76936e-05 to 2.76936e-05
Heightened Def Con from 2.76936e-05 to 2.76937e-05
Heightened Def Con from 2.76937e-05 to 2.76947e-05
Heightened Def Con from 2.76947e-05 to 2.76947e-05
Heightened Def Con from 2.76947e-05 to 2.76957e-05
Heightened Def Con from 2.76957e-05 to 2.76957e-05
Heightened Def Con from 2.76957e-05 to 2.76959e-05
Heightened Def Con from 2.76959e-05 to 2.7697e-05
Heightened Def Con from 2.76971e-05 to 2.76972e-05
Heightened Def Con from 2.76972e-05 to 2.76992e-05
Heightened Def Con from 2.77e-05 to 2.7702e-05
Heightened Def Con from 2.78861e-05 to 2.78862e-05
Heightened Def Con from 2.78862e-05 to 2.78874e-05
Heightened Def Con from 2.78874e-05 to 2.78875e-05
Heightened Def Con from 2.78875e-05 to 2.78895e-05
Heightened Def Con from 2.78915e-05 to 2.78916e-05
Heightened Def Con from 2.78916e-05 to 2.78936e-05
Heightened Def Con from 2.78943e-05 to 2.78943e-05
Heightened Def Con from 2.78943e-05 to 2.78953e-05
Heightened Def Con from 2.78953e-05 to 2.78953e-05
Heightened Def Con from 2.78953e-05 to 2.78953e-05
Heightened Def Con from 2.78953e-05 to 2.78955e-05
Heightened Def Con from 2.78955e-05 to 2.78956e-05
Heightened Def Con from 2.78956e-05 to 2.78959e-05
Heightened Def Con from 2.78968e-05 to 2.78978e-05
Heightened Def Con from 2.78978e-05 to 2.7899e-05
Heightened Def Con from 2.78993e-05 to 2.79004e-05
Heightened Def Con from 2.79004e-05 to 2.79024e-05
Heightened Def Con from 2.79039e-05 to 2.79039e-05
Heightened Def Con from 2.79039e-05 to 2.7904e-05
Heightened Def Con from 2.7904e-05 to 2.79042e-05
Heightened Def Con from 2.79042e-05 to 2.79044e-05
Heightened Def Con from 2.79044e-05 to 2.79046e-05
Heightened Def Con from 2.79046e-05 to 2.79048e-05
Heightened Def Con from 2.79048e-05 to 2.79048e-05
Heightened Def Con from 2.7905e-05 to 2.7905e-05
Heightened Def Con from 2.7905e-05 to 2.79051e-05
Heightened Def Con from 2.79051e-05 to 2.79052e-05
Heightened Def Con from 2.79057e-05 to 2.79058e-05
Heightened Def Con from 2.79058e-05 to 2.7906e-05
Heightened Def Con from 2.7906e-05 to 2.7906e-05
Heightened Def Con from 2.7906e-05 to 2.79061e-05
Heightened Def Con from 2.79061e-05 to 2.79062e-05
Heightened Def Con from 2.79062e-05 to 2.79062e-05
Heightened Def Con from 2.79062e-05 to 2.79082e-05
Heightened Def Con from 2.79107e-05 to 2.79108e-05
Heightened Def Con from 2.79108e-05 to 2.79118e-05
Heightened Def Con from 2.79118e-05 to 2.79118e-05
Heightened Def Con from 2.79118e-05 to 2.79118e-05
Heightened Def Con from 2.79118e-05 to 2.79118e-05
Heightened Def Con from 2.79118e-05 to 2.79129e-05
Heightened Def Con from 2.79129e-05 to 2.79129e-05
Heightened Def Con from 2.79129e-05 to 2.79132e-05
Heightened Def Con from 2.79132e-05 to 2.79132e-05
Heightened Def Con from 2.79132e-05 to 2.79132e-05
Heightened Def Con from 2.79132e-05 to 2.79142e-05
Heightened Def Con from 2.79142e-05 to 2.79162e-05
Heightened Def Con from 2.79164e-05 to 2.79175e-05
Heightened Def Con from 2.79179e-05 to 2.79181e-05
Heightened Def Con from 2.79181e-05 to 2.79181e-05
Heightened Def Con from 2.79181e-05 to 2.79201e-05
Heightened Def Con from 2.79201e-05 to 2.79203e-05
Heightened Def Con from 2.79208e-05 to 2.79228e-05
Heightened Def Con from 2.79236e-05 to 2.79236e-05
Heightened Def Con from 2.79236e-05 to 2.79246e-05
Heightened Def Con from 2.79246e-05 to 2.79248e-05
Heightened Def Con from 2.79249e-05 to 2.7925e-05
Heightened Def Con from 2.7925e-05 to 2.7927e-05
Heightened Def Con from 2.79273e-05 to 2.79273e-05
Heightened Def Con from 2.79273e-05 to 2.79275e-05
Heightened Def Con from 2.79284e-05 to 2.79284e-05
Heightened Def Con from 2.79284e-05 to 2.79296e-05
Heightened Def Con from 2.79296e-05 to 2.79307e-05
Heightened Def Con from 2.79308e-05 to 2.79328e-05
Heightened Def Con from 2.79337e-05 to 2.79347e-05
Heightened Def Con from 2.79348e-05 to 2.79348e-05
Heightened Def Con from 2.79348e-05 to 2.79348e-05
Heightened Def Con from 2.79348e-05 to 2.79358e-05
Heightened Def Con from 2.79358e-05 to 2.79358e-05
Heightened Def Con from 2.79358e-05 to 2.7937e-05
Heightened Def Con from 2.79379e-05 to 2.79382e-05
Heightened Def Con from 2.79383e-05 to 2.79385e-05
Heightened Def Con from 2.7939e-05 to 2.7941e-05
Heightened Def Con from 2.79411e-05 to 2.79421e-05
Heightened Def Con from 2.79421e-05 to 2.79422e-05
Heightened Def Con from 2.79422e-05 to 2.79422e-05
Heightened Def Con from 2.79422e-05 to 2.79434e-05
Heightened Def Con from 2.79435e-05 to 2.79446e-05
Heightened Def Con from 2.79456e-05 to 2.79467e-05
Heightened Def Con from 2.79467e-05 to 2.79477e-05
Heightened Def Con from 2.79482e-05 to 2.79483e-05
Heightened Def Con from 2.79483e-05 to 2.79503e-05
Heightened Def Con from 2.79505e-05 to 2.79505e-05
Heightened Def Con from 2.79505e-05 to 2.79508e-05
Heightened Def Con from 2.79508e-05 to 2.79528e-05
Heightened Def Con from 2.79763e-05 to 2.79763e-05
Heightened Def Con from 2.79763e-05 to 2.79763e-05
Heightened Def Con from 2.79763e-05 to 2.79773e-05
Heightened Def Con from 2.79773e-05 to 2.79783e-05
Heightened Def Con from 2.79784e-05 to 2.79795e-05
Heightened Def Con from 2.79795e-05 to 2.79805e-05
Heightened Def Con from 2.79806e-05 to 2.79806e-05
Heightened Def Con from 2.79806e-05 to 2.79826e-05
Heightened Def Con from 2.79855e-05 to 2.79856e-05
Heightened Def Con from 2.79856e-05 to 2.79876e-05
Heightened Def Con from 2.79897e-05 to 2.79917e-05
Heightened Def Con from 2.79938e-05 to 2.7994e-05
Heightened Def Con from 2.79941e-05 to 2.79961e-05
Heightened Def Con from 2.79961e-05 to 2.79963e-05
Heightened Def Con from 2.79966e-05 to 2.79986e-05
Heightened Def Con from 2.80021e-05 to 2.80023e-05
Heightened Def Con from 2.80068e-05 to 2.80078e-05
Heightened Def Con from 2.80078e-05 to 2.80078e-05
Heightened Def Con from 2.80078e-05 to 2.80098e-05
Heightened Def Con from 2.80106e-05 to 2.80107e-05
Heightened Def Con from 2.8011e-05 to 2.8011e-05
Heightened Def Con from 2.8011e-05 to 2.8013e-05
Heightened Def Con from 2.8015e-05 to 2.80151e-05
Heightened Def Con from 2.80151e-05 to 2.80151e-05
Heightened Def Con from 2.80151e-05 to 2.80162e-05
Heightened Def Con from 2.80179e-05 to 2.80189e-05
Heightened Def Con from 2.8019e-05 to 2.8021e-05
Heightened Def Con from 2.80214e-05 to 2.80234e-05
Heightened Def Con from 2.80256e-05 to 2.80256e-05
Heightened Def Con from 2.80256e-05 to 2.80258e-05
Heightened Def Con from 2.80258e-05 to 2.80258e-05
Heightened Def Con from 2.80258e-05 to 2.8026e-05
Heightened Def Con from 2.8026e-05 to 2.8027e-05
Heightened Def Con from 2.8027e-05 to 2.8027e-05
Heightened Def Con from 2.8027e-05 to 2.80273e-05
Heightened Def Con from 2.80274e-05 to 2.80274e-05
Heightened Def Con from 2.80274e-05 to 2.80285e-05
Heightened Def Con from 2.80285e-05 to 2.80305e-05
Heightened Def Con from 2.80307e-05 to 2.80307e-05
Heightened Def Con from 2.80307e-05 to 2.8031e-05
Heightened Def Con from 2.8031e-05 to 2.8031e-05
Heightened Def Con from 2.8031e-05 to 2.80311e-05
Heightened Def Con from 2.80312e-05 to 2.80313e-05
Heightened Def Con from 2.80313e-05 to 2.80333e-05
Heightened Def Con from 2.8034e-05 to 2.8034e-05
Heightened Def Con from 2.8034e-05 to 2.8034e-05
Heightened Def Con from 2.8034e-05 to 2.8035e-05
Heightened Def Con from 2.80351e-05 to 2.80361e-05
Heightened Def Con from 2.80361e-05 to 2.80372e-05
Heightened Def Con from 2.8039e-05 to 2.8039e-05
Heightened Def Con from 2.8039e-05 to 2.80391e-05
Heightened Def Con from 2.80391e-05 to 2.80391e-05
Heightened Def Con from 2.80391e-05 to 2.80391e-05
Heightened Def Con from 2.80391e-05 to 2.80401e-05
Heightened Def Con from 2.80401e-05 to 2.80403e-05
Heightened Def Con from 2.80406e-05 to 2.80406e-05
Heightened Def Con from 2.80406e-05 to 2.80416e-05
Heightened Def Con from 2.80416e-05 to 2.80418e-05
Heightened Def Con from 2.80418e-05 to 2.80418e-05
Heightened Def Con from 2.80418e-05 to 2.80418e-05
Heightened Def Con from 2.80418e-05 to 2.80418e-05
Heightened Def Con from 2.80418e-05 to 2.80418e-05
Heightened Def Con from 2.80418e-05 to 2.80418e-05
Heightened Def Con from 2.80418e-05 to 2.8042e-05
Heightened Def Con from 2.8042e-05 to 2.80431e-05
Heightened Def Con from 2.80433e-05 to 2.80434e-05
Heightened Def Con from 2.80435e-05 to 2.80435e-05
Heightened Def Con from 2.80435e-05 to 2.80435e-05
Heightened Def Con from 2.80435e-05 to 2.80455e-05
Heightened Def Con from 2.8048e-05 to 2.80492e-05
Heightened Def Con from 2.80495e-05 to 2.80506e-05
Heightened Def Con from 2.80514e-05 to 2.80515e-05
Heightened Def Con from 2.80515e-05 to 2.80515e-05
Heightened Def Con from 2.80515e-05 to 2.80515e-05
Heightened Def Con from 2.80515e-05 to 2.80535e-05
Heightened Def Con from 2.80536e-05 to 2.80556e-05
Heightened Def Con from 2.80581e-05 to 2.80581e-05
Heightened Def Con from 2.80581e-05 to 2.80601e-05
Heightened Def Con from 2.80601e-05 to 2.80613e-05
Heightened Def Con from 2.80618e-05 to 2.80638e-05
Heightened Def Con from 2.80778e-05 to 2.80778e-05
Heightened Def Con from 2.80778e-05 to 2.80798e-05
Heightened Def Con from 2.80876e-05 to 2.80876e-05
Heightened Def Con from 2.80876e-05 to 2.80877e-05
Heightened Def Con from 2.80877e-05 to 2.80887e-05
Heightened Def Con from 2.80887e-05 to 2.80888e-05
Heightened Def Con from 2.80888e-05 to 2.80908e-05
Heightened Def Con from 2.80929e-05 to 2.80939e-05
Heightened Def Con from 2.80939e-05 to 2.80939e-05
Heightened Def Con from 2.80939e-05 to 2.80949e-05
Heightened Def Con from 2.80949e-05 to 2.80961e-05
Heightened Def Con from 2.80965e-05 to 2.80967e-05
Heightened Def Con from 2.80968e-05 to 2.80978e-05
Heightened Def Con from 2.80978e-05 to 2.80978e-05
Heightened Def Con from 2.80978e-05 to 2.80978e-05
Heightened Def Con from 2.80978e-05 to 2.80979e-05
Heightened Def Con from 2.80983e-05 to 2.80983e-05
Heightened Def Con from 2.80983e-05 to 2.80983e-05
Heightened Def Con from 2.80983e-05 to 2.80993e-05
Heightened Def Con from 2.80994e-05 to 2.81014e-05
Heightened Def Con from 2.83209e-05 to 2.83209e-05
Heightened Def Con from 2.83209e-05 to 2.8321e-05
Heightened Def Con from 2.8321e-05 to 2.8323e-05
Heightened Def Con from 2.83231e-05 to 2.83234e-05
Heightened Def Con from 2.83234e-05 to 2.83234e-05
Heightened Def Con from 2.83234e-05 to 2.83254e-05
Heightened Def Con from 2.83254e-05 to 2.83254e-05
Heightened Def Con from 2.83254e-05 to 2.83254e-05
Heightened Def Con from 2.83254e-05 to 2.83254e-05
Heightened Def Con from 2.83254e-05 to 2.83254e-05
Heightened Def Con from 2.83254e-05 to 2.83255e-05
Heightened Def Con from 2.83255e-05 to 2.83275e-05
Heightened Def Con from 2.83295e-05 to 2.83295e-05
Heightened Def Con from 2.83295e-05 to 2.83295e-05
Heightened Def Con from 2.83295e-05 to 2.83295e-05
Heightened Def Con from 2.83295e-05 to 2.83315e-05
Heightened Def Con from 2.83315e-05 to 2.83315e-05
Heightened Def Con from 2.83315e-05 to 2.83315e-05
Heightened Def Con from 2.83315e-05 to 2.83325e-05
Heightened Def Con from 2.83325e-05 to 2.83335e-05
Heightened Def Con from 2.83335e-05 to 2.83337e-05
Heightened Def Con from 2.83337e-05 to 2.83338e-05
Heightened Def Con from 2.83338e-05 to 2.83358e-05
Heightened Def Con from 2.83358e-05 to 2.83368e-05
Heightened Def Con from 2.83368e-05 to 2.83368e-05
Heightened Def Con from 2.83368e-05 to 2.83368e-05
Heightened Def Con from 2.83368e-05 to 2.83368e-05
Heightened Def Con from 2.83368e-05 to 2.83379e-05
Heightened Def Con from 2.83383e-05 to 2.83393e-05
Heightened Def Con from 2.83393e-05 to 2.83395e-05
Heightened Def Con from 2.83395e-05 to 2.83395e-05
Heightened Def Con from 2.83395e-05 to 2.83405e-05
Heightened Def Con from 2.83405e-05 to 2.83407e-05
Heightened Def Con from 2.83407e-05 to 2.83407e-05
Heightened Def Con from 2.83407e-05 to 2.8341e-05
Heightened Def Con from 2.8341e-05 to 2.83411e-05
Heightened Def Con from 2.83412e-05 to 2.83412e-05
Heightened Def Con from 2.83412e-05 to 2.83412e-05
Heightened Def Con from 2.83412e-05 to 2.83413e-05
Heightened Def Con from 2.83413e-05 to 2.83423e-05
Heightened Def Con from 2.83423e-05 to 2.83423e-05
Heightened Def Con from 2.83423e-05 to 2.83433e-05
Heightened Def Con from 2.83433e-05 to 2.83433e-05
Heightened Def Con from 2.83433e-05 to 2.83445e-05
Heightened Def Con from 2.83457e-05 to 2.83467e-05
Heightened Def Con from 2.83467e-05 to 2.83467e-05
Heightened Def Con from 2.83467e-05 to 2.83468e-05
Heightened Def Con from 2.83468e-05 to 2.8348e-05
Heightened Def Con from 2.8348e-05 to 2.83481e-05
Heightened Def Con from 2.83481e-05 to 2.83482e-05
Heightened Def Con from 2.83482e-05 to 2.83502e-05
Heightened Def Con from 2.84126e-05 to 2.84136e-05
Heightened Def Con from 2.84136e-05 to 2.84137e-05
Heightened Def Con from 2.84137e-05 to 2.84148e-05
Heightened Def Con from 2.84148e-05 to 2.8415e-05
Heightened Def Con from 2.8415e-05 to 2.8415e-05
Heightened Def Con from 2.8415e-05 to 2.84151e-05
Heightened Def Con from 2.84151e-05 to 2.84151e-05
Heightened Def Con from 2.84151e-05 to 2.84152e-05
Heightened Def Con from 2.84152e-05 to 2.84153e-05
Heightened Def Con from 2.84154e-05 to 2.84165e-05
Heightened Def Con from 2.84167e-05 to 2.84169e-05
Heightened Def Con from 2.84169e-05 to 2.84189e-05
Heightened Def Con from 2.84285e-05 to 2.84287e-05
Heightened Def Con from 2.843e-05 to 2.8431e-05
Heightened Def Con from 2.8431e-05 to 2.8431e-05
Heightened Def Con from 2.84311e-05 to 2.84322e-05
Heightened Def Con from 2.84322e-05 to 2.84322e-05
Heightened Def Con from 2.84322e-05 to 2.84324e-05
Heightened Def Con from 2.84324e-05 to 2.84324e-05
Heightened Def Con from 2.84324e-05 to 2.84324e-05
Heightened Def Con from 2.84324e-05 to 2.84324e-05
Heightened Def Con from 2.8433e-05 to 2.8433e-05
Heightened Def Con from 2.8433e-05 to 2.8435e-05
Heightened Def Con from 2.8435e-05 to 2.84351e-05
Heightened Def Con from 2.84351e-05 to 2.84352e-05
Heightened Def Con from 2.84353e-05 to 2.84363e-05
Heightened Def Con from 2.84363e-05 to 2.84366e-05
Heightened Def Con from 2.84366e-05 to 2.84366e-05
Heightened Def Con from 2.84366e-05 to 2.84367e-05
Heightened Def Con from 2.84367e-05 to 2.84387e-05
Heightened Def Con from 2.84453e-05 to 2.84453e-05
Heightened Def Con from 2.84453e-05 to 2.84453e-05
Heightened Def Con from 2.84453e-05 to 2.84455e-05
Heightened Def Con from 2.84455e-05 to 2.84457e-05
Heightened Def Con from 2.84458e-05 to 2.84459e-05
Heightened Def Con from 2.84459e-05 to 2.84459e-05
Heightened Def Con from 2.84459e-05 to 2.84461e-05
Heightened Def Con from 2.84461e-05 to 2.84472e-05
Heightened Def Con from 2.8449e-05 to 2.84501e-05
Heightened Def Con from 2.84501e-05 to 2.84501e-05
Heightened Def Con from 2.84501e-05 to 2.84501e-05
Heightened Def Con from 2.84502e-05 to 2.84503e-05
Heightened Def Con from 2.84503e-05 to 2.84503e-05
Heightened Def Con from 2.84503e-05 to 2.84503e-05
Heightened Def Con from 2.84503e-05 to 2.84505e-05
Heightened Def Con from 2.84506e-05 to 2.84507e-05
Heightened Def Con from 2.84507e-05 to 2.84527e-05
Heightened Def Con from 2.84527e-05 to 2.84547e-05
Heightened Def Con from 2.84548e-05 to 2.84559e-05
Heightened Def Con from 2.84559e-05 to 2.84559e-05
Heightened Def Con from 2.84559e-05 to 2.84561e-05
Heightened Def Con from 2.84561e-05 to 2.84581e-05
Heightened Def Con from 2.84616e-05 to 2.84626e-05
Heightened Def Con from 2.84626e-05 to 2.84646e-05
Heightened Def Con from 2.84653e-05 to 2.84653e-05
Heightened Def Con from 2.84653e-05 to 2.84673e-05
Heightened Def Con from 2.84676e-05 to 2.84686e-05
Heightened Def Con from 2.84686e-05 to 2.84706e-05
Heightened Def Con from 2.84854e-05 to 2.84855e-05
Heightened Def Con from 2.84855e-05 to 2.84856e-05
Heightened Def Con from 2.84856e-05 to 2.84858e-05
Heightened Def Con from 2.84858e-05 to 2.84858e-05
Heightened Def Con from 2.84858e-05 to 2.84858e-05
Heightened Def Con from 2.84858e-05 to 2.84861e-05
Heightened Def Con from 2.84863e-05 to 2.84864e-05
Heightened Def Con from 2.84864e-05 to 2.84864e-05
Heightened Def Con from 2.84864e-05 to 2.84866e-05
Heightened Def Con from 2.84869e-05 to 2.84869e-05
Heightened Def Con from 2.84869e-05 to 2.84872e-05
Heightened Def Con from 2.84874e-05 to 2.84877e-05
Heightened Def Con from 2.84879e-05 to 2.8488e-05
Heightened Def Con from 2.8488e-05 to 2.84882e-05
Heightened Def Con from 2.84882e-05 to 2.84884e-05
Heightened Def Con from 2.84889e-05 +to 2.849e-05
Heightened Def Con from 2.849e-05 to 2.849e-05
Heightened Def Con from 2.849e-05 to 2.84902e-05
Heightened Def Con from 2.84902e-05 to 2.84913e-05
Heightened Def Con from 2.84915e-05 to 2.84925e-05
Heightened Def Con from 2.84925e-05 to 2.84925e-05
Heightened Def Con from 2.84925e-05 to 2.84925e-05
Heightened Def Con from 2.84926e-05 to 2.84937e-05
Heightened Def Con from 2.84937e-05 to 2.84939e-05
Heightened Def Con from 2.84942e-05 to 2.84953e-05
Heightened Def Con from 2.84954e-05 to 2.84964e-05
Heightened Def Con from 2.84964e-05 to 2.84964e-05
Heightened Def Con from 2.84964e-05 to 2.84975e-05
Heightened Def Con from 2.84976e-05 to 2.84977e-05
Heightened Def Con from 2.84978e-05 to 2.8498e-05
Heightened Def Con from 2.8498e-05 to 2.8498e-05
Heightened Def Con from 2.8498e-05 to 2.84982e-05
Heightened Def Con from 2.84982e-05 to 2.84982e-05
Heightened Def Con from 2.84982e-05 to 2.84983e-05
Heightened Def Con from 2.84983e-05 to 2.84984e-05
Heightened Def Con from 2.84984e-05 to 2.84986e-05
Heightened Def Con from 2.84989e-05 to 2.84989e-05
Heightened Def Con from 2.84989e-05 to 2.84989e-05
Heightened Def Con from 2.84989e-05 to 2.84989e-05
Heightened Def Con from 2.84989e-05 to 2.84989e-05
Heightened Def Con from 2.84989e-05 to 2.84989e-05
Heightened Def Con from 2.84989e-05 to 2.84989e-05
Heightened Def Con from 2.8499e-05 to 2.8499e-05
Heightened Def Con from 2.8499e-05 to 2.85001e-05
Heightened Def Con from 2.85001e-05 to 2.85001e-05
Heightened Def Con from 2.85001e-05 to 2.85013e-05
Heightened Def Con from 2.85015e-05 to 2.85016e-05
Heightened Def Con from 2.85016e-05 to 2.85016e-05
Heightened Def Con from 2.85016e-05 to 2.85017e-05
Heightened Def Con from 2.85017e-05 to 2.85018e-05
Heightened Def Con from 2.85018e-05 to 2.85028e-05
Heightened Def Con from 2.85028e-05 to 2.85028e-05
Heightened Def Con from 2.85029e-05 to 2.85031e-05
Heightened Def Con from 2.85039e-05 to 2.85042e-05
Heightened Def Con from 2.85042e-05 to 2.85042e-05
Heightened Def Con from 2.85042e-05 to 2.85052e-05
Heightened Def Con from 2.85052e-05 to 2.85053e-05
Heightened Def Con from 2.85053e-05 to 2.85063e-05
Heightened Def Con from 2.85063e-05 to 2.85063e-05
Heightened Def Con from 2.85063e-05 to 2.85063e-05
Heightened Def Con from 2.85063e-05 to 2.85073e-05
Heightened Def Con from 2.85074e-05 to 2.85084e-05
Heightened Def Con from 2.85084e-05 to 2.85084e-05
Heightened Def Con from 2.85084e-05 to 2.85095e-05
Heightened Def Con from 2.85096e-05 to 2.85096e-05
Heightened Def Con from 2.85096e-05 to 2.85096e-05
Heightened Def Con from 2.85096e-05 to 2.85116e-05
Heightened Def Con from 2.85116e-05 to 2.85117e-05
Heightened Def Con from 2.85117e-05 to 2.85127e-05
Heightened Def Con from 2.85127e-05 to 2.85128e-05
Heightened Def Con from 2.85128e-05 to 2.85128e-05
Heightened Def Con from 2.85128e-05 to 2.8513e-05
Heightened Def Con from 2.85134e-05 to 2.85136e-05
Heightened Def Con from 2.85136e-05 to 2.85137e-05
Heightened Def Con from 2.85137e-05 to 2.85139e-05
Heightened Def Con from 2.85139e-05 to 2.85139e-05
Heightened Def Con from 2.85139e-05 to 2.85139e-05
Heightened Def Con from 2.85139e-05 to 2.85139e-05
Heightened Def Con from 2.85139e-05 to 2.85139e-05
Heightened Def Con from 2.85139e-05 to 2.85142e-05
Heightened Def Con from 2.85142e-05 to 2.85142e-05
Heightened Def Con from 2.85142e-05 to 2.85143e-05
Heightened Def Con from 2.85144e-05 to 2.85144e-05
Heightened Def Con from 2.85144e-05 to 2.85144e-05
Heightened Def Con from 2.85144e-05 to 2.85155e-05
Heightened Def Con from 2.85156e-05 to 2.85156e-05
Heightened Def Con from 2.85156e-05 to 2.85156e-05
Heightened Def Con from 2.85156e-05 to 2.85156e-05
Heightened Def Con from 2.85156e-05 to 2.85156e-05
Heightened Def Con from 2.85156e-05 to 2.85156e-05
Heightened Def Con from 2.85156e-05 to 2.85157e-05
Heightened Def Con from 2.85157e-05 to 2.85158e-05
Heightened Def Con from 2.85158e-05 to 2.85159e-05
Heightened Def Con from 2.85159e-05 to 2.85159e-05
Heightened Def Con from 2.85159e-05 to 2.85161e-05
Heightened Def Con from 2.85161e-05 to 2.85171e-05
Heightened Def Con from 2.85171e-05 to 2.85171e-05
Heightened Def Con from 2.85178e-05 to 2.85178e-05
Heightened Def Con from 2.85178e-05 to 2.85178e-05
Heightened Def Con from 2.85179e-05 to 2.85179e-05
Heightened Def Con from 2.85179e-05 to 2.8518e-05
Heightened Def Con from 2.8518e-05 to 2.8518e-05
Heightened Def Con from 2.85181e-05 to 2.85183e-05
Heightened Def Con from 2.85183e-05 to 2.85183e-05
Heightened Def Con from 2.85183e-05 to 2.85185e-05
Heightened Def Con from 2.85185e-05 to 2.85186e-05
Heightened Def Con from 2.85186e-05 to 2.85197e-05
Heightened Def Con from 2.852e-05 +to 2.852e-05
Heightened Def Con from 2.852e-05 to 2.85201e-05
Heightened Def Con from 2.85201e-05 to 2.85201e-05
Heightened Def Con from 2.85201e-05 to 2.85201e-05
Heightened Def Con from 2.85201e-05 to 2.85201e-05
Heightened Def Con from 2.85201e-05 to 2.85203e-05
Heightened Def Con from 2.85203e-05 to 2.85204e-05
Heightened Def Con from 2.85204e-05 to 2.85204e-05
Heightened Def Con from 2.85204e-05 to 2.85204e-05
Heightened Def Con from 2.85204e-05 to 2.85216e-05
Heightened Def Con from 2.85216e-05 to 2.85217e-05
Heightened Def Con from 2.85218e-05 to 2.85219e-05
Heightened Def Con from 2.85219e-05 to 2.8522e-05
Heightened Def Con from 2.8522e-05 to 2.85223e-05
Heightened Def Con from 2.85223e-05 to 2.85233e-05
Heightened Def Con from 2.85233e-05 to 2.85233e-05
Heightened Def Con from 2.85233e-05 to 2.85244e-05
Heightened Def Con from 2.85244e-05 to 2.85255e-05
Heightened Def Con from 2.85255e-05 to 2.85256e-05
Heightened Def Con from 2.85256e-05 to 2.85256e-05
Heightened Def Con from 2.85256e-05 to 2.85256e-05
Heightened Def Con from 2.85256e-05 to 2.85276e-05
Heightened Def Con from 2.85283e-05 to 2.85283e-05
Heightened Def Con from 2.85283e-05 to 2.85293e-05
Heightened Def Con from 2.85299e-05 to 2.853e-05
Heightened Def Con from 2.85301e-05 to 2.85301e-05
Heightened Def Con from 2.85301e-05 to 2.85301e-05
Heightened Def Con from 2.85302e-05 to 2.85302e-05
Heightened Def Con from 2.85302e-05 to 2.85303e-05
Heightened Def Con from 2.85303e-05 to 2.85313e-05
Heightened Def Con from 2.85313e-05 to 2.85323e-05
Heightened Def Con from 2.85323e-05 to 2.85323e-05
Heightened Def Con from 2.85323e-05 to 2.85335e-05
Heightened Def Con from 2.85335e-05 to 2.85345e-05
Heightened Def Con from 2.85345e-05 to 2.85355e-05
Heightened Def Con from 2.85356e-05 to 2.85357e-05
Heightened Def Con from 2.85357e-05 to 2.85357e-05
Heightened Def Con from 2.85357e-05 to 2.85357e-05
Heightened Def Con from 2.85357e-05 to 2.85377e-05
Heightened Def Con from 2.8538e-05 to 2.85391e-05
Heightened Def Con from 2.85391e-05 to 2.85391e-05
Heightened Def Con from 2.85391e-05 to 2.85392e-05
Heightened Def Con from 2.85392e-05 to 2.85404e-05
Heightened Def Con from 2.85414e-05 to 2.85425e-05
Heightened Def Con from 2.85425e-05 to 2.85425e-05
Heightened Def Con from 2.85425e-05 to 2.85445e-05
Heightened Def Con from 2.85489e-05 to 2.855e-05
Heightened Def Con from 2.855e-05 to 2.85503e-05
Heightened Def Con from 2.85503e-05 to 2.85504e-05
Heightened Def Con from 2.85504e-05 to 2.85515e-05
Heightened Def Con from 2.85535e-05 to 2.85545e-05
Heightened Def Con from 2.85545e-05 to 2.85565e-05
Heightened Def Con from 2.85727e-05 to 2.85739e-05
Heightened Def Con from 2.85747e-05 to 2.85767e-05
Heightened Def Con from 2.85787e-05 to 2.85787e-05
Heightened Def Con from 2.85787e-05 to 2.85787e-05
Heightened Def Con from 2.85787e-05 to 2.85788e-05
Heightened Def Con from 2.85789e-05 to 2.85791e-05
Heightened Def Con from 2.85791e-05 to 2.85801e-05
Heightened Def Con from 2.85801e-05 to 2.85821e-05
Heightened Def Con from 2.85821e-05 to 2.85822e-05
Heightened Def Con from 2.85822e-05 to 2.85832e-05
Heightened Def Con from 2.85832e-05 to 2.85843e-05
Heightened Def Con from 2.85843e-05 to 2.85863e-05
Heightened Def Con from 2.85938e-05 to 2.85938e-05
Heightened Def Con from 2.85938e-05 to 2.85948e-05
Heightened Def Con from 2.85948e-05 to 2.85968e-05
Heightened Def Con from 2.86168e-05 to 2.86168e-05
Heightened Def Con from 2.86168e-05 to 2.86188e-05
Heightened Def Con from 2.86188e-05 to 2.86191e-05
Heightened Def Con from 2.86194e-05 to 2.86214e-05
Heightened Def Con from 2.86363e-05 to 2.86364e-05
Heightened Def Con from 2.86369e-05 to 2.86371e-05
Heightened Def Con from 2.86372e-05 to 2.86392e-05
Heightened Def Con from 2.86408e-05 to 2.86408e-05
Heightened Def Con from 2.86408e-05 to 2.8641e-05
Heightened Def Con from 2.8641e-05 to 2.8641e-05
Heightened Def Con from 2.8641e-05 to 2.8642e-05
Heightened Def Con from 2.8642e-05 to 2.86422e-05
Heightened Def Con from 2.86422e-05 to 2.86433e-05
Heightened Def Con from 2.86435e-05 to 2.86435e-05
Heightened Def Con from 2.86435e-05 to 2.86435e-05
Heightened Def Con from 2.86435e-05 to 2.86437e-05
Heightened Def Con from 2.86437e-05 to 2.86437e-05
Heightened Def Con from 2.86437e-05 to 2.86437e-05
Heightened Def Con from 2.86437e-05 to 2.86448e-05
Heightened Def Con from 2.86449e-05 to 2.86449e-05
Heightened Def Con from 2.86449e-05 to 2.8646e-05
Heightened Def Con from 2.86469e-05 to 2.8647e-05
Heightened Def Con from 2.8647e-05 to 2.86471e-05
Heightened Def Con from 2.86472e-05 to 2.86475e-05
Heightened Def Con from 2.86477e-05 to 2.86488e-05
Heightened Def Con from 2.86488e-05 to 2.86488e-05
Heightened Def Con from 2.86488e-05 to 2.86508e-05
Heightened Def Con from 2.86511e-05 to 2.86521e-05
Heightened Def Con from 2.86521e-05 to 2.86521e-05
Heightened Def Con from 2.86521e-05 to 2.86521e-05
Heightened Def Con from 2.86521e-05 to 2.86532e-05
Heightened Def Con from 2.86532e-05 to 2.86533e-05
Heightened Def Con from 2.86535e-05 to 2.86547e-05
Heightened Def Con from 2.86548e-05 to 2.86548e-05
Heightened Def Con from 2.86548e-05 to 2.86548e-05
Heightened Def Con from 2.86548e-05 to 2.86559e-05
Heightened Def Con from 2.86621e-05 to 2.86621e-05
Heightened Def Con from 2.86621e-05 to 2.86621e-05
Heightened Def Con from 2.86621e-05 to 2.86621e-05
Heightened Def Con from 2.86621e-05 to 2.86641e-05
Heightened Def Con from 2.86648e-05 to 2.86648e-05
Heightened Def Con from 2.86648e-05 to 2.8666e-05
Heightened Def Con from 2.8666e-05 to 2.8666e-05
Heightened Def Con from 2.8666e-05 to 2.8666e-05
Heightened Def Con from 2.8666e-05 to 2.8666e-05
Heightened Def Con from 2.8666e-05 to 2.8667e-05
Heightened Def Con from 2.8667e-05 to 2.8667e-05
Heightened Def Con from 2.8667e-05 to 2.86671e-05
Heightened Def Con from 2.86671e-05 to 2.86672e-05
Heightened Def Con from 2.86672e-05 to 2.86692e-05
Heightened Def Con from 2.86692e-05 to 2.86694e-05
Heightened Def Con from 2.867e-05 to 2.867e-05
Heightened Def Con from 2.867e-05 to 2.8671e-05
Heightened Def Con from 2.86713e-05 to 2.86733e-05
Heightened Def Con from 2.86733e-05 to 2.86733e-05
Heightened Def Con from 2.86753e-05 to 2.86753e-05
Heightened Def Con from 2.86753e-05 to 2.86773e-05
Heightened Def Con from 2.86776e-05 to 2.86776e-05
Heightened Def Con from 2.86776e-05 to 2.86776e-05
Heightened Def Con from 2.89577e-05 to 2.89577e-05
Heightened Def Con from 2.89578e-05 to 2.89578e-05
Heightened Def Con from 2.89579e-05 to 2.89579e-05
Heightened Def Con from 2.8958e-05 to 2.8958e-05
Heightened Def Con from 2.8958e-05 to 2.8959e-05
Heightened Def Con from 2.89591e-05 to 2.89591e-05
Heightened Def Con from 2.89591e-05 to 2.89593e-05
Heightened Def Con from 2.89594e-05 to 2.89614e-05
Heightened Def Con from 2.90562e-05 to 2.90563e-05
Heightened Def Con from 2.90564e-05 to 2.90584e-05
Heightened Def Con from 2.90806e-05 to 2.90808e-05
Heightened Def Con from 2.90808e-05 to 2.9082e-05
Heightened Def Con from 2.90839e-05 to 2.90842e-05
Heightened Def Con from 2.90873e-05 to 2.90875e-05
Heightened Def Con from 2.90876e-05 to 2.90886e-05
Heightened Def Con from 2.90891e-05 to 2.90891e-05
Heightened Def Con from 2.90892e-05 to 2.90903e-05
Heightened Def Con from 2.90906e-05 to 2.90916e-05
Heightened Def Con from 2.90918e-05 to 2.90918e-05
Heightened Def Con from 2.90943e-05 to 2.90944e-05
Heightened Def Con from 2.90945e-05 to 2.90956e-05
Heightened Def Con from 2.91149e-05 to 2.91149e-05
Heightened Def Con from 2.91149e-05 to 2.91169e-05
Heightened Def Con from 2.91176e-05 to 2.91177e-05
Heightened Def Con from 2.91177e-05 to 2.91178e-05
Heightened Def Con from 2.91178e-05 to 2.91179e-05
Heightened Def Con from 2.91179e-05 to 2.91189e-05
Heightened Def Con from 2.91189e-05 to 2.91189e-05
Heightened Def Con from 2.91189e-05 to 2.91199e-05
Heightened Def Con from 2.912e-05 to 2.912e-05
Heightened Def Con from 2.912e-05 to 2.912e-05
Heightened Def Con from 2.91201e-05 to 2.91211e-05
Heightened Def Con from 2.91211e-05 to 2.91222e-05
Heightened Def Con from 2.91225e-05 to 2.91236e-05
Heightened Def Con from 2.91239e-05 to 2.91239e-05
Heightened Def Con from 2.91239e-05 to 2.91249e-05
Heightened Def Con from 2.91249e-05 to 2.91249e-05
Heightened Def Con from 2.91251e-05 to 2.91251e-05
Heightened Def Con from 2.91251e-05 to 2.91252e-05
Heightened Def Con from 2.91252e-05 to 2.91272e-05
Heightened Def Con from 2.91288e-05 to 2.91289e-05
Heightened Def Con from 2.9129e-05 to 2.9129e-05
Heightened Def Con from 2.9129e-05 to 2.91301e-05
Heightened Def Con from 2.91302e-05 to 2.91302e-05
Heightened Def Con from 2.91302e-05 to 2.91303e-05
Heightened Def Con from 2.91303e-05 to 2.91303e-05
Heightened Def Con from 2.91303e-05 to 2.91306e-05
Heightened Def Con from 2.91364e-05 to 2.91365e-05
Heightened Def Con from 2.91366e-05 to 2.91386e-05
Heightened Def Con from 2.91527e-05 to 2.91527e-05
Heightened Def Con from 2.91527e-05 to 2.91547e-05
Heightened Def Con from 2.91547e-05 to 2.91547e-05
Heightened Def Con from 2.91547e-05 to 2.91547e-05
Heightened Def Con from 2.91547e-05 to 2.91558e-05
Heightened Def Con from 2.91596e-05 to 2.91597e-05
Heightened Def Con from 2.91599e-05 to 2.91601e-05
Heightened Def Con from 2.91602e-05 to 2.91602e-05
Heightened Def Con from 2.91602e-05 to 2.91612e-05
Heightened Def Con from 2.91619e-05 to 2.9162e-05
Heightened Def Con from 2.9162e-05 to 2.91622e-05
Heightened Def Con from 2.91622e-05 to 2.91623e-05
Heightened Def Con from 2.91623e-05 to 2.91625e-05
Heightened Def Con from 2.91625e-05 to 2.91636e-05
Heightened Def Con from 2.91643e-05 to 2.91655e-05
Heightened Def Con from 2.91659e-05 to 2.9166e-05
Heightened Def Con from 2.9166e-05 to 2.9168e-05
Heightened Def Con from 2.97383e-05 to 2.97383e-05
Heightened Def Con from 2.97383e-05 to 2.97384e-05
Heightened Def Con from 2.97384e-05 to 2.97384e-05
Heightened Def Con from 2.97384e-05 to 2.97404e-05
Heightened Def Con from 2.97444e-05 to 2.97455e-05
Heightened Def Con from 2.97457e-05 to 2.97458e-05
Heightened Def Con from 2.97458e-05 to 2.97458e-05
Heightened Def Con from 2.97458e-05 to 2.97469e-05
Heightened Def Con from 2.97469e-05 to 2.9748e-05
Heightened Def Con from 2.97481e-05 to 2.97501e-05
Heightened Def Con from 2.97503e-05 to 2.97523e-05
Heightened Def Con from 2.97525e-05 to 2.97535e-05
Heightened Def Con from 2.97536e-05 to 2.97537e-05
Heightened Def Con from 2.97537e-05 to 2.97539e-05
Heightened Def Con from 2.97539e-05 to 2.9755e-05
Heightened Def Con from 2.9755e-05 to 2.9755e-05
Heightened Def Con from 2.9755e-05 to 2.97551e-05
Heightened Def Con from 2.97551e-05 to 2.97552e-05
Heightened Def Con from 2.97552e-05 to 2.97553e-05
Heightened Def Con from 2.97553e-05 to 2.97573e-05
Heightened Def Con from 2.97577e-05 to 2.97577e-05
Heightened Def Con from 2.97577e-05 to 2.97588e-05
Heightened Def Con from 2.97588e-05 to 2.9759e-05
Heightened Def Con from 2.976e-05 to 2.976e-05
Heightened Def Con from 2.976e-05 to 2.976e-05
Heightened Def Con from 2.97601e-05 to 2.97611e-05
Heightened Def Con from 2.97611e-05 to 2.97611e-05
Heightened Def Con from 2.97611e-05 to 2.97622e-05
Heightened Def Con from 2.97622e-05 to 2.97633e-05
Heightened Def Con from 2.97636e-05 to 2.97636e-05
Heightened Def Con from 2.97636e-05 to 2.97636e-05
Heightened Def Con from 2.97636e-05 to 2.97646e-05
Heightened Def Con from 2.97646e-05 to 2.97648e-05
Heightened Def Con from 2.97648e-05 to 2.97649e-05
Heightened Def Con from 2.97649e-05 to 2.97651e-05
Heightened Def Con from 2.97651e-05 to 2.97661e-05
Heightened Def Con from 2.97661e-05 to 2.97661e-05
Heightened Def Con from 2.97661e-05 to 2.97662e-05
Heightened Def Con from 2.97662e-05 to 2.97662e-05
Heightened Def Con from 2.97662e-05 to 2.97672e-05
Heightened Def Con from 2.97672e-05 to 2.97692e-05
Heightened Def Con from 2.98387e-05 to 2.98398e-05
Heightened Def Con from 2.98399e-05 to 2.9841e-05
Heightened Def Con from 2.98417e-05 to 2.98417e-05
Heightened Def Con from 2.98417e-05 to 2.98418e-05
Heightened Def Con from 2.98418e-05 to 2.98418e-05
Heightened Def Con from 2.98418e-05 to 2.98418e-05
Heightened Def Con from 2.98418e-05 to 2.98438e-05
Heightened Def Con from 2.98476e-05 to 2.98476e-05
Heightened Def Con from 2.98476e-05 to 2.98496e-05
Heightened Def Con from 2.98556e-05 to 2.98557e-05
Heightened Def Con from 2.98557e-05 to 2.98567e-05
Heightened Def Con from 2.98567e-05 to 2.98577e-05
Heightened Def Con from 2.98579e-05 to 2.98599e-05
Heightened Def Con from 2.98623e-05 to 2.98623e-05
Heightened Def Con from 2.98623e-05 to 2.98634e-05
Heightened Def Con from 2.98634e-05 to 2.98645e-05
Heightened Def Con from 2.98645e-05 to 2.98645e-05
Heightened Def Con from 2.98645e-05 to 2.98655e-05
Heightened Def Con from 2.98655e-05 to 2.98665e-05
Heightened Def Con from 2.98667e-05 to 2.98687e-05
Heightened Def Con from 2.99065e-05 to 2.99065e-05
Heightened Def Con from 2.99065e-05 to 2.99065e-05
Heightened Def Con from 2.99065e-05 to 2.99065e-05
Heightened Def Con from 2.99065e-05 to 2.99065e-05
Heightened Def Con from 2.99065e-05 to 2.99065e-05
Heightened Def Con from 2.99065e-05 to 2.99066e-05
Heightened Def Con from 2.99068e-05 to 2.99088e-05
Heightened Def Con from 2.99094e-05 to 2.99105e-05
Heightened Def Con from 2.99107e-05 to 2.99127e-05
Heightened Def Con from 2.99163e-05 to 2.99174e-05
Heightened Def Con from 2.99175e-05 to 2.99185e-05
Heightened Def Con from 2.99185e-05 to 2.99185e-05
Heightened Def Con from 2.99185e-05 to 2.99185e-05
Heightened Def Con from 2.99185e-05 to 2.99196e-05
Heightened Def Con from 2.99199e-05 to 2.99209e-05
Heightened Def Con from 2.99209e-05 to 2.99209e-05
Heightened Def Con from 2.99209e-05 to 2.99219e-05
Heightened Def Con from 2.9922e-05 to 2.9922e-05
Heightened Def Con from 2.9922e-05 to 2.99232e-05
Heightened Def Con from 2.99232e-05 to 2.99235e-05
Heightened Def Con from 2.99236e-05 to 2.99236e-05
Heightened Def Con from 2.99236e-05 to 2.99246e-05
Heightened Def Con from 2.99246e-05 to 2.99256e-05
Heightened Def Con from 2.99257e-05 to 2.99267e-05
Heightened Def Con from 2.99267e-05 to 2.99267e-05
Heightened Def Con from 2.99267e-05 to 2.99267e-05
Heightened Def Con from 2.99268e-05 to 2.99268e-05
Heightened Def Con from 2.99268e-05 to 2.99269e-05
Heightened Def Con from 2.99269e-05 to 2.99279e-05
Heightened Def Con from 2.99279e-05 to 2.99291e-05
Heightened Def Con from 2.99294e-05 to 2.99294e-05
Heightened Def Con from 2.99294e-05 to 2.99304e-05
Heightened Def Con from 2.99304e-05 to 2.99304e-05
Heightened Def Con from 2.99304e-05 to 2.99305e-05
Heightened Def Con from 2.99305e-05 to 2.99315e-05
Heightened Def Con from 2.99316e-05 to 2.99327e-05
Heightened Def Con from 2.99327e-05 to 2.99328e-05
Heightened Def Con from 2.99328e-05 to 2.99329e-05
Heightened Def Con from 2.99329e-05 to 2.99339e-05
Heightened Def Con from 2.99339e-05 to 2.99341e-05
Heightened Def Con from 2.99341e-05 to 2.99351e-05
Heightened Def Con from 2.99351e-05 to 2.99352e-05
Heightened Def Con from 2.99353e-05 to 2.99353e-05
Heightened Def Con from 2.99353e-05 to 2.99353e-05
Heightened Def Con from 2.99354e-05 to 2.99355e-05
Heightened Def Con from 2.99355e-05 to 2.99355e-05
Heightened Def Con from 2.99355e-05 to 2.99365e-05
Heightened Def Con from 2.9937e-05 to 2.99372e-05
Heightened Def Con from 2.99372e-05 to 2.99382e-05
Heightened Def Con from 2.99382e-05 to 2.99382e-05
Heightened Def Con from 2.99382e-05 to 2.99384e-05
Heightened Def Con from 2.99384e-05 to 2.99385e-05
Heightened Def Con from 2.99387e-05 to 2.99388e-05
Heightened Def Con from 2.99388e-05 to 2.99388e-05
Heightened Def Con from 2.99388e-05 to 2.99408e-05
Heightened Def Con from 2.99412e-05 to 2.99413e-05
Heightened Def Con from 2.99414e-05 to 2.99424e-05
Heightened Def Con from 2.99432e-05 to 2.99432e-05
Heightened Def Con from 2.99432e-05 to 2.99442e-05
Heightened Def Con from 2.99445e-05 to 2.99445e-05
Heightened Def Con from 2.99445e-05 to 2.99456e-05
Heightened Def Con from 2.99459e-05 to 2.99469e-05
Heightened Def Con from 2.9947e-05 to 2.9947e-05
Heightened Def Con from 2.9947e-05 to 2.99471e-05
Heightened Def Con from 2.99472e-05 to 2.99482e-05
Heightened Def Con from 2.99482e-05 to 2.99482e-05
Heightened Def Con from 2.99482e-05 to 2.99482e-05
Heightened Def Con from 2.99482e-05 to 2.99502e-05
Heightened Def Con from 2.99524e-05 to 2.99524e-05
Heightened Def Con from 2.99524e-05 to 2.99524e-05
Heightened Def Con from 2.99524e-05 to 2.99534e-05
Heightened Def Con from 2.99535e-05 to 2.99537e-05
Heightened Def Con from 2.99537e-05 to 2.99538e-05
Heightened Def Con from 2.99538e-05 to 2.99538e-05
Heightened Def Con from 2.99538e-05 to 2.99538e-05
Heightened Def Con from 2.99538e-05 to 2.99538e-05
Heightened Def Con from 2.99538e-05 to 2.9954e-05
Heightened Def Con from 2.9954e-05 to 2.99551e-05
Heightened Def Con from 2.99552e-05 to 2.99562e-05
Heightened Def Con from 2.99562e-05 to 2.99573e-05
Heightened Def Con from 2.99576e-05 to 2.99576e-05
Heightened Def Con from 2.99576e-05 to 2.99576e-05
Heightened Def Con from 2.99577e-05 to 2.99577e-05
Heightened Def Con from 2.9958e-05 to 2.9959e-05
Heightened Def Con from 2.9959e-05 to 2.9961e-05
Heightened Def Con from 2.99613e-05 to 2.99614e-05
Heightened Def Con from 2.99614e-05 to 2.99624e-05
Heightened Def Con from 2.99624e-05 to 2.99634e-05
Heightened Def Con from 2.99634e-05 to 2.99644e-05
Heightened Def Con from 2.99645e-05 to 2.99655e-05
Heightened Def Con from 2.99655e-05 to 2.99665e-05
Heightened Def Con from 2.99665e-05 to 2.99675e-05
Heightened Def Con from 2.99675e-05 to 2.99685e-05
Heightened Def Con from 2.99685e-05 to 2.99705e-05
Heightened Def Con from 2.99713e-05 to 2.99713e-05
Heightened Def Con from 2.99713e-05 to 2.99713e-05
Heightened Def Con from 2.99713e-05 to 2.99723e-05
Heightened Def Con from 2.99723e-05 to 2.99734e-05
Heightened Def Con from 2.99735e-05 to 2.99745e-05
Heightened Def Con from 2.99745e-05 to 2.99746e-05
Heightened Def Con from 2.99747e-05 to 2.99748e-05
Heightened Def Con from 2.99748e-05 to 2.99749e-05
Heightened Def Con from 2.99749e-05 to 2.99749e-05
Heightened Def Con from 2.99749e-05 to 2.99749e-05
Heightened Def Con from 2.99749e-05 to 2.99749e-05
Heightened Def Con from 2.99749e-05 to 2.99759e-05
Heightened Def Con from 2.99759e-05 to 2.99759e-05
Heightened Def Con from 2.99759e-05 to 2.99759e-05
Heightened Def Con from 2.99759e-05 to 2.9977e-05
Heightened Def Con from 2.99774e-05 to 2.99784e-05
Heightened Def Con from 2.99785e-05 to 2.99796e-05
Heightened Def Con from 2.99796e-05 to 2.99796e-05
Heightened Def Con from 2.99796e-05 to 2.99806e-05
Heightened Def Con from 2.99806e-05 to 2.99817e-05
Heightened Def Con from 2.99817e-05 to 2.99817e-05
Heightened Def Con from 2.99817e-05 to 2.99827e-05
Heightened Def Con from 2.99827e-05 to 2.99828e-05
Heightened Def Con from 2.99828e-05 to 2.9983e-05
Heightened Def Con from 2.9983e-05 to 2.9985e-05
Heightened Def Con from 2.99888e-05 to 2.99898e-05
Heightened Def Con from 2.99903e-05 to 2.99903e-05
Heightened Def Con from 2.99903e-05 to 2.99913e-05
Heightened Def Con from 2.99914e-05 to 2.99924e-05
Heightened Def Con from 2.99925e-05 to 2.99926e-05
Heightened Def Con from 2.99926e-05 to 2.99936e-05
Heightened Def Con from 2.99936e-05 to 2.99947e-05
Heightened Def Con from 2.99947e-05 to 2.99958e-05
Heightened Def Con from 2.99962e-05 to 2.99973e-05
Heightened Def Con from 2.99974e-05 to 2.99974e-05
Heightened Def Con from 2.99974e-05 to 2.99984e-05
Heightened Def Con from 2.99984e-05 to 3.00004e-05
Heightened Def Con from 3.00009e-05 to 3.0001e-05
Heightened Def Con from 3.0001e-05 to 3.00011e-05
Heightened Def Con from 3.00011e-05 to 3.00012e-05
Heightened Def Con from 3.00012e-05 to 3.00022e-05
Heightened Def Con from 3.00023e-05 to 3.00034e-05
Heightened Def Con from 3.00039e-05 to 3.00039e-05
Heightened Def Con from 3.00039e-05 to 3.00039e-05
Heightened Def Con from 3.00039e-05 to 3.0005e-05
Heightened Def Con from 3.00055e-05 to 3.00066e-05
Heightened Def Con from 3.00068e-05 to 3.0007e-05
Heightened Def Con from 3.0007e-05 to 3.00081e-05
Heightened Def Con from 3.00081e-05 to 3.00092e-05
Heightened Def Con from 3.00092e-05 to 3.00102e-05
Heightened Def Con from 3.00102e-05 to 3.00114e-05
Heightened Def Con from 3.00114e-05 to 3.00124e-05
Heightened Def Con from 3.00125e-05 to 3.00127e-05
Heightened Def Con from 3.00127e-05 to 3.00128e-05
Heightened Def Con from 3.00129e-05 to 3.00139e-05
Heightened Def Con from 3.00139e-05 to 3.00149e-05
Heightened Def Con from 3.00149e-05 to 3.0016e-05
Heightened Def Con from 3.0016e-05 to 3.00162e-05
Heightened Def Con from 3.00162e-05 to 3.00172e-05
Heightened Def Con from 3.00172e-05 to 3.00174e-05
Heightened Def Con from 3.00174e-05 to 3.00194e-05
Heightened Def Con from 3.00214e-05 to 3.00225e-05
Heightened Def Con from 3.00227e-05 to 3.00237e-05
Heightened Def Con from 3.0024e-05 to 3.0024e-05
Heightened Def Con from 3.0024e-05 to 3.0025e-05
Heightened Def Con from 3.0025e-05 to 3.0025e-05
Heightened Def Con from 3.0025e-05 to 3.0025e-05
Heightened Def Con from 3.0025e-05 to 3.00251e-05
Heightened Def Con from 3.00251e-05 to 3.00262e-05
Heightened Def Con from 3.00263e-05 to 3.00273e-05
Heightened Def Con from 3.00294e-05 to 3.00294e-05
Heightened Def Con from 3.00294e-05 to 3.00305e-05
Heightened Def Con from 3.00312e-05 to 3.00313e-05
Heightened Def Con from 3.00313e-05 to 3.00313e-05
Heightened Def Con from 3.00313e-05 to 3.00323e-05
Heightened Def Con from 3.00323e-05 to 3.00334e-05
Heightened Def Con from 3.00334e-05 to 3.00335e-05
Heightened Def Con from 3.00335e-05 to 3.00335e-05
Heightened Def Con from 3.00335e-05 to 3.00336e-05
Heightened Def Con from 3.00338e-05 to 3.00338e-05
Heightened Def Con from 3.00338e-05 to 3.0034e-05
Heightened Def Con from 3.0034e-05 to 3.0035e-05
Heightened Def Con from 3.00351e-05 to 3.00351e-05
Heightened Def Con from 3.00351e-05 to 3.00351e-05
Heightened Def Con from 3.00351e-05 to 3.00352e-05
Heightened Def Con from 3.00355e-05 to 3.00355e-05
Heightened Def Con from 3.00355e-05 to 3.00355e-05
Heightened Def Con from 3.00356e-05 to 3.00358e-05
Heightened Def Con from 3.00358e-05 to 3.00378e-05
Heightened Def Con from 3.00378e-05 to 3.00378e-05
Heightened Def Con from 3.00378e-05 to 3.00398e-05
Heightened Def Con from 3.00459e-05 to 3.00469e-05
Heightened Def Con from 3.00469e-05 to 3.00469e-05
Heightened Def Con from 3.00469e-05 to 3.00469e-05
Heightened Def Con from 3.00469e-05 to 3.00489e-05
Heightened Def Con from 3.00515e-05 to 3.00515e-05
Heightened Def Con from 3.00515e-05 to 3.00526e-05
Heightened Def Con from 3.00526e-05 to 3.00537e-05
Heightened Def Con from 3.00537e-05 to 3.00557e-05
Heightened Def Con from 3.00569e-05 to 3.0058e-05
Heightened Def Con from 3.00581e-05 to 3.00601e-05
Heightened Def Con from 3.00603e-05 to 3.00606e-05
Heightened Def Con from 3.00609e-05 to 3.0061e-05
Heightened Def Con from 3.0061e-05 to 3.0063e-05
Heightened Def Con from 3.0097e-05 to 3.00972e-05
Heightened Def Con from 3.00972e-05 to 3.00992e-05
Heightened Def Con from 3.00993e-05 to 3.01003e-05
Heightened Def Con from 3.01003e-05 to 3.01014e-05
Heightened Def Con from 3.01014e-05 to 3.01024e-05
Heightened Def Con from 3.01024e-05 to 3.01024e-05
Heightened Def Con from 3.01025e-05 to 3.01036e-05
Heightened Def Con from 3.01036e-05 to 3.01037e-05
Heightened Def Con from 3.01038e-05 to 3.01048e-05
Heightened Def Con from 3.01049e-05 to 3.0105e-05
Heightened Def Con from 3.0105e-05 to 3.0105e-05
Heightened Def Con from 3.01051e-05 to 3.01062e-05
Heightened Def Con from 3.0107e-05 to 3.0108e-05
Heightened Def Con from 3.0108e-05 to 3.0109e-05
Heightened Def Con from 3.01091e-05 to 3.01101e-05
Heightened Def Con from 3.01103e-05 to 3.01103e-05
Heightened Def Con from 3.01103e-05 to 3.01103e-05
Heightened Def Con from 3.01103e-05 to 3.01103e-05
Heightened Def Con from 3.01103e-05 to 3.01104e-05
Heightened Def Con from 3.01104e-05 to 3.01105e-05
Heightened Def Con from 3.01105e-05 to 3.01115e-05
Heightened Def Con from 3.01115e-05 to 3.01125e-05
Heightened Def Con from 3.01125e-05 to 3.01135e-05
Heightened Def Con from 3.01145e-05 to 3.01146e-05
Heightened Def Con from 3.01146e-05 to 3.01156e-05
Heightened Def Con from 3.01157e-05 to 3.01177e-05
Heightened Def Con from 3.01177e-05 to 3.01197e-05
Heightened Def Con from 3.03737e-05 to 3.03737e-05
Heightened Def Con from 3.03737e-05 to 3.03747e-05
Heightened Def Con from 3.03747e-05 to 3.03757e-05
Heightened Def Con from 3.03757e-05 to 3.03769e-05
Heightened Def Con from 3.03769e-05 to 3.0377e-05
Heightened Def Con from 3.0377e-05 to 3.0378e-05
Heightened Def Con from 3.03781e-05 to 3.03782e-05
Heightened Def Con from 3.03782e-05 to 3.03782e-05
Heightened Def Con from 3.03782e-05 to 3.03792e-05
Heightened Def Con from 3.03792e-05 to 3.03802e-05
Heightened Def Con from 3.03802e-05 to 3.03813e-05
Heightened Def Con from 3.03816e-05 to 3.03816e-05
Heightened Def Con from 3.03816e-05 to 3.03826e-05
Heightened Def Con from 3.03826e-05 to 3.03828e-05
Heightened Def Con from 3.03828e-05 to 3.03838e-05
Heightened Def Con from 3.03838e-05 +to 3.03849e-05
Heightened Def Con from 3.03849e-05 to 3.03859e-05
Heightened Def Con from 3.03859e-05 to 3.03859e-05
Heightened Def Con from 3.03859e-05 to 3.03859e-05
Heightened Def Con from 3.03859e-05 to 3.03859e-05
Heightened Def Con from 3.03859e-05 to 3.03879e-05
Heightened Def Con from 3.0394e-05 to 3.0395e-05
Heightened Def Con from 3.0395e-05 to 3.03961e-05
Heightened Def Con from 3.03962e-05 to 3.03972e-05
Heightened Def Con from 3.03972e-05 to 3.03983e-05
Heightened Def Con from 3.03985e-05 to 3.03995e-05
Heightened Def Con from 3.03995e-05 to 3.04005e-05
Heightened Def Con from 3.04005e-05 to 3.04015e-05
Heightened Def Con from 3.04017e-05 to 3.04017e-05
Heightened Def Con from 3.04017e-05 to 3.04028e-05
Heightened Def Con from 3.04028e-05 to 3.0403e-05
Heightened Def Con from 3.0403e-05 to 3.0404e-05
Heightened Def Con from 3.0404e-05 to 3.0404e-05
Heightened Def Con from 3.0404e-05 to 3.0404e-05
Heightened Def Con from 3.0404e-05 to 3.04051e-05
Heightened Def Con from 3.04051e-05 to 3.04052e-05
Heightened Def Con from 3.04052e-05 to 3.04052e-05
Heightened Def Con from 3.04052e-05 to 3.04062e-05
Heightened Def Con from 3.04063e-05 to 3.04065e-05
Heightened Def Con from 3.04065e-05 to 3.04065e-05
Heightened Def Con from 3.04065e-05 to 3.04076e-05
Heightened Def Con from 3.04076e-05 to 3.04086e-05
Heightened Def Con from 3.04086e-05 to 3.04106e-05
Heightened Def Con from 3.04116e-05 to 3.04117e-05
Heightened Def Con from 3.04117e-05 to 3.04117e-05
Heightened Def Con from 3.04117e-05 to 3.04117e-05
Heightened Def Con from 3.04117e-05 to 3.04127e-05
Heightened Def Con from 3.04128e-05 to 3.04128e-05
Heightened Def Con from 3.04128e-05 to 3.04139e-05
Heightened Def Con from 3.0414e-05 to 3.04141e-05
Heightened Def Con from 3.04141e-05 to 3.04143e-05
Heightened Def Con from 3.04143e-05 to 3.04144e-05
Heightened Def Con from 3.04144e-05 to 3.04154e-05
Heightened Def Con from 3.04154e-05 to 3.04166e-05
Heightened Def Con from 3.04166e-05 to 3.04176e-05
Heightened Def Con from 3.04176e-05 to 3.04177e-05
Heightened Def Con from 3.04178e-05 to 3.04188e-05
Heightened Def Con from 3.04188e-05 to 3.04188e-05
Heightened Def Con from 3.04189e-05 to 3.04189e-05
Heightened Def Con from 3.04189e-05 to 3.0419e-05
Heightened Def Con from 3.0419e-05 to 3.042e-05
Heightened Def Con from 3.042e-05 to 3.0421e-05
Heightened Def Con from 3.0421e-05 to 3.04222e-05
Heightened Def Con from 3.04222e-05 to 3.04222e-05
Heightened Def Con from 3.04222e-05 to 3.04222e-05
Heightened Def Con from 3.04222e-05 to 3.04232e-05
[...]
Heightened Def Con from 3.2893e-05 to 3.2893e-05
Heightened Def Con from 3.2893e-05 to 3.2893e-05
Heightened Def Con from 3.2893e-05 to 3.2894e-05
Heightened Def Con from 3.2894e-05 to 3.28942e-05
Heightened Def Con from 3.28942e-05 to 3.28943e-05
Heightened Def Con from 3.28943e-05 to 3.28943e-05
Heightened Def Con from 3.28943e-05 to 3.28943e-05
Heightened Def Con from 3.28943e-05 +to 3.28943e-05
Heightened Def Con from 3.28943e-05 +to 3.28944e-05
Heightened Def Con from 3.28944e-05 to 3.28944e-05
Heightened Def Con from 3.28944e-05 to 3.28954e-05
Heightened Def Con from 3.28954e-05 to 3.28964e-05
Heightened Def Con from 3.28964e-05 to 3.28964e-05
Heightened Def Con from 3.28964e-05 to 3.28964e-05
Heightened Def Con from 3.28964e-05 to 3.28976e-05
Heightened Def Con from 3.28976e-05 to 3.28976e-05
Heightened Def Con from 3.28976e-05 to 3.28976e-05
Heightened Def Con from 3.28976e-05 +to 3.28996e-05
Heightened Def Con from 3.28996e-05 to 3.28996e-05
Heightened Def Con from 3.28996e-05 to 3.29006e-05
Heightened Def Con from 3.29006e-05 to 3.29006e-05
Heightened Def Con from 3.29006e-05 to 3.29006e-05
Heightened Def Con from 3.29006e-05 to 3.29006e-05
Heightened Def Con from 3.29006e-05 to 3.29006e-05
Heightened Def Con from 3.29006e-05 to 3.29016e-05
Heightened Def Con from 3.29016e-05 to 3.29026e-05
Heightened Def Con from 3.29026e-05 to 3.29046e-05
Heightened Def Con from 3.29047e-05 to 3.29049e-05
Heightened Def Con from 3.29049e-05 +to 3.2906e-05
Heightened Def Con from 3.2906e-05 to 3.2907e-05
Heightened Def Con from 3.2907e-05 to 3.2908e-05
Heightened Def Con from 3.2908e-05 to 3.2908e-05
Heightened Def Con from 3.2908e-05 to 3.2908e-05
Heightened Def Con from 3.2908e-05 to 3.2908e-05
Heightened Def Con from 3.2908e-05 to 3.2908e-05
Heightened Def Con from 3.2908e-05 to 3.2909e-05
Heightened Def Con from 3.2909e-05 to 3.2909e-05
Heightened Def Con from 3.2909e-05 to 3.291e-05
Heightened Def Con from 3.29101e-05 to 3.29101e-05
Heightened Def Con from 3.29101e-05 to 3.29101e-05
Heightened Def Con from 3.29101e-05 to 3.29101e-05
Heightened Def Con from 3.29101e-05 to 3.29101e-05
Heightened Def Con from 3.29101e-05 to 3.29111e-05
Heightened Def Con from 3.29111e-05 to 3.29121e-05
Heightened Def Con from 3.29121e-05 to 3.29121e-05
Heightened Def Con from 3.29121e-05 to 3.29121e-05
Heightened Def Con from 3.29121e-05 to 3.29131e-05
Heightened Def Con from 3.29131e-05 +to 3.29151e-05
Heightened Def Con from 3.29151e-05 to 3.29161e-05
Heightened Def Con from 3.29161e-05 to 3.29161e-05
Heightened Def Con from 3.29161e-05 to 3.29161e-05
Heightened Def Con from 3.29161e-05 to 3.29171e-05
Heightened Def Con from 3.29171e-05 to 3.29173e-05
Heightened Def Con from 3.29173e-05 to 3.29174e-05
Heightened Def Con from 3.29174e-05 to 3.29174e-05
Heightened Def Con from 3.29174e-05 to 3.29175e-05
Heightened Def Con from 3.29175e-05 to 3.29175e-05
Heightened Def Con from 3.29175e-05 to 3.29175e-05
Heightened Def Con from 3.29175e-05 to 3.29185e-05
Heightened Def Con from 3.29185e-05 to 3.29195e-05
Heightened Def Con from 3.29195e-05 to 3.29205e-05
Heightened Def Con from 3.29205e-05 to 3.29215e-05
Heightened Def Con from 3.29215e-05 to 3.29225e-05
Heightened Def Con from 3.29225e-05 to 3.29225e-05
Heightened Def Con from 3.29225e-05 to 3.29235e-05
Heightened Def Con from 3.29235e-05 to 3.29235e-05
Heightened Def Con from 3.29235e-05 to 3.29245e-05
Heightened Def Con from 3.29245e-05 to 3.29245e-05
Heightened Def Con from 3.29245e-05 to 3.29245e-05
Heightened Def Con from 3.29245e-05 to 3.29247e-05
Heightened Def Con from 3.29247e-05 to 3.29267e-05
Heightened Def Con from 3.29274e-05 to 3.29274e-05
Heightened Def Con from 3.29277e-05 +to 3.29277e-05
Heightened Def Con from 3.29277e-05 to 3.29277e-05
Heightened Def Con from 3.29277e-05 to 3.29287e-05
Heightened Def Con from 3.29287e-05 to 3.29287e-05
Heightened Def Con from 3.29287e-05 to 3.29287e-05
Heightened Def Con from 3.29287e-05 to 3.29297e-05
Heightened Def Con from 3.29297e-05 to 3.29297e-05
Heightened Def Con from 3.29297e-05 to 3.29298e-05
Heightened Def Con from 3.29298e-05 to 3.29298e-05
Heightened Def Con from 3.29298e-05 to 3.29298e-05
Heightened Def Con from 3.29298e-05 to 3.29299e-05
Heightened Def Con from 3.29299e-05 to 3.29309e-05
Heightened Def Con from 3.29309e-05 to 3.29319e-05
Heightened Def Con from 3.29319e-05 to 3.29329e-05
Heightened Def Con from 3.29329e-05 to 3.29339e-05
Heightened Def Con from 3.29339e-05 to 3.29349e-05
Heightened Def Con from 3.29349e-05 to 3.29359e-05
Heightened Def Con from 3.29359e-05 to 3.29359e-05
Heightened Def Con from 3.29359e-05 to 3.29359e-05
Heightened Def Con from 3.29359e-05 to 3.29359e-05
Heightened Def Con from 3.29359e-05 to 3.29359e-05
Heightened Def Con from 3.29359e-05 to 3.29359e-05
Heightened Def Con from 3.29359e-05 to 3.29359e-05
Heightened Def Con from 3.29359e-05 to 3.29359e-05
Heightened Def Con from 3.29359e-05 to 3.29359e-05
Heightened Def Con from 3.29359e-05 to 3.29359e-05
Heightened Def Con from 3.29359e-05 to 3.29359e-05
Heightened Def Con from 3.29359e-05 to 3.29359e-05
Heightened Def Con from 3.29359e-05 to 3.29359e-05
Heightened Def Con from 3.29359e-05 to 3.29369e-05
Heightened Def Con from 3.29369e-05 to 3.29369e-05
Heightened Def Con from 3.29369e-05 to 3.29379e-05
Heightened Def Con from 3.2938e-05 to 3.2939e-05
Heightened Def Con from 3.2939e-05 to 3.2939e-05
Heightened Def Con from 3.2939e-05 to 3.2939e-05
Heightened Def Con from 3.2939e-05 to 3.294e-05
Heightened Def Con from 3.294e-05 to 3.294e-05
Heightened Def Con from 3.294e-05 to 3.29401e-05
Heightened Def Con from 3.29401e-05 to 3.29401e-05
Heightened Def Con from 3.29401e-05 to 3.29401e-05
Heightened Def Con from 3.29401e-05 to 3.29411e-05
Heightened Def Con from 3.29411e-05 to 3.29411e-05
Heightened Def Con from 3.29411e-05 to 3.29421e-05
Heightened Def Con from 3.29421e-05 to 3.29431e-05
Heightened Def Con from 3.29431e-05 to 3.29431e-05
Heightened Def Con from 3.29431e-05 to 3.29441e-05
Heightened Def Con from 3.29441e-05 to 3.29442e-05
Heightened Def Con from 3.29442e-05 to 3.29452e-05
Heightened Def Con from 3.29452e-05 to 3.29462e-05
Heightened Def Con from 3.29462e-05 to 3.29462e-05
Heightened Def Con from 3.29462e-05 to 3.29462e-05
Heightened Def Con from 3.29462e-05 to 3.29472e-05
Heightened Def Con from 3.29472e-05 to 3.29482e-05
Heightened Def Con from 3.29483e-05 to 3.29483e-05
Heightened Def Con from 3.29483e-05 to 3.29493e-05
Heightened Def Con from 3.29493e-05 to 3.29503e-05
Heightened Def Con from 3.29506e-05 to 3.29506e-05
Heightened Def Con from 3.29506e-05 to 3.29506e-05
Heightened Def Con from 3.29506e-05 to 3.29516e-05
Heightened Def Con from 3.29516e-05 +to 3.29527e-05
Heightened Def Con from 3.29527e-05 to 3.29527e-05
Heightened Def Con from 3.29527e-05 to 3.29537e-05
Heightened Def Con from 3.29537e-05 to 3.29538e-05
Heightened Def Con from 3.29538e-05 to 3.29539e-05
Heightened Def Con from 3.29539e-05 to 3.29541e-05
Heightened Def Con from 3.29541e-05 to 3.29541e-05
Heightened Def Con from 3.29541e-05 to 3.29541e-05
Heightened Def Con from 3.29541e-05 to 3.29541e-05
Heightened Def Con from 3.29541e-05 to 3.29551e-05
Heightened Def Con from 3.29551e-05 to 3.29561e-05
Heightened Def Con from 3.29561e-05 to 3.29571e-05
Heightened Def Con from 3.29571e-05 to 3.29581e-05
Heightened Def Con from 3.29581e-05 to 3.29591e-05
Heightened Def Con from 3.29591e-05 to 3.29593e-05
Heightened Def Con from 3.29593e-05 to 3.29604e-05
Heightened Def Con from 3.29604e-05 to 3.29604e-05
Heightened Def Con from 3.29604e-05 to 3.29605e-05
Heightened Def Con from 3.29605e-05 to 3.29615e-05
Heightened Def Con from 3.29615e-05 to 3.29625e-05
Heightened Def Con from 3.29625e-05 to 3.29635e-05
Heightened Def Con from 3.29635e-05 to 3.29645e-05
Heightened Def Con from 3.29645e-05 to 3.29645e-05
Heightened Def Con from 3.29645e-05 to 3.29646e-05
Heightened Def Con from 3.29646e-05 to 3.29656e-05
Heightened Def Con from 3.29656e-05 to 3.29666e-05
Heightened Def Con from 3.29666e-05 to 3.29666e-05
Heightened Def Con from 3.29666e-05 to 3.29666e-05
Heightened Def Con from 3.29666e-05 to 3.29676e-05
Heightened Def Con from 3.29676e-05 to 3.29686e-05
Heightened Def Con from 3.29686e-05 to 3.29688e-05
Heightened Def Con from 3.29688e-05 to 3.29688e-05
Heightened Def Con from 3.29688e-05 to 3.29689e-05
Heightened Def Con from 3.29689e-05 to 3.29689e-05
Heightened Def Con from 3.29689e-05 to 3.29699e-05
Heightened Def Con from 3.29699e-05 to 3.29699e-05
Heightened Def Con from 3.29699e-05 to 3.29699e-05
Heightened Def Con from 3.29699e-05 to 3.29699e-05
Heightened Def Con from 3.29699e-05 to 3.29699e-05
Heightened Def Con from 3.29699e-05 to 3.297e-05
Heightened Def Con from 3.297e-05 to 3.2971e-05
Heightened Def Con from 3.2971e-05 to 3.2971e-05
Heightened Def Con from 3.2971e-05 to 3.2971e-05
Heightened Def Con from 3.2971e-05 to 3.2971e-05
Heightened Def Con from 3.2971e-05 to 3.2971e-05
Heightened Def Con from 3.2971e-05 to 3.2971e-05
Heightened Def Con from 3.2971e-05 to 3.2971e-05
Heightened Def Con from 3.2971e-05 to 3.2971e-05
Heightened Def Con from 3.2971e-05 to 3.2972e-05
Heightened Def Con from 3.2972e-05 to 3.2972e-05
Heightened Def Con from 3.2972e-05 to 3.2972e-05
Heightened Def Con from 3.2972e-05 to 3.2972e-05
Heightened Def Con from 3.2972e-05 to 3.29721e-05
Heightened Def Con from 3.29721e-05 to 3.29731e-05
Heightened Def Con from 3.29731e-05 to 3.29731e-05
Heightened Def Con from 3.29731e-05 to 3.29741e-05
Heightened Def Con from 3.29741e-05 to 3.29741e-05
Heightened Def Con from 3.29741e-05 to 3.29742e-05
Heightened Def Con from 3.29742e-05 to 3.29742e-05
Heightened Def Con from 3.29742e-05 to 3.29752e-05
Heightened Def Con from 3.29752e-05 to 3.29754e-05
Heightened Def Con from 3.29754e-05 to 3.29754e-05
Heightened Def Con from 3.29754e-05 to 3.29754e-05
Heightened Def Con from 3.29754e-05 to 3.29754e-05
Heightened Def Con from 3.29754e-05 to 3.29764e-05
Heightened Def Con from 3.29764e-05 to 3.29765e-05
Heightened Def Con from 3.29765e-05 to 3.29765e-05
Heightened Def Con from 3.29765e-05 to 3.29765e-05
Heightened Def Con from 3.29765e-05 to 3.29775e-05
Heightened Def Con from 3.29775e-05 to 3.29785e-05
Heightened Def Con from 3.29785e-05 to 3.29795e-05
Heightened Def Con from 3.29795e-05 to 3.29805e-05
Heightened Def Con from 3.29806e-05 to 3.29806e-05
Heightened Def Con from 3.29806e-05 to 3.29806e-05
Heightened Def Con from 3.29806e-05 +to 3.29807e-05
Heightened Def Con from 3.29807e-05 to 3.29817e-05
Heightened Def Con from 3.29817e-05 to 3.29827e-05
Heightened Def Con from 3.29827e-05 to 3.29827e-05
Heightened Def Con from 3.29827e-05 to 3.29837e-05
Heightened Def Con from 3.29837e-05 to 3.29837e-05
Heightened Def Con from 3.29837e-05 to 3.29837e-05
Heightened Def Con from 3.29837e-05 to 3.29837e-05
Heightened Def Con from 3.29837e-05 to 3.29837e-05
Heightened Def Con from 3.29837e-05 to 3.29838e-05
Heightened Def Con from 3.29838e-05 to 3.29838e-05
Heightened Def Con from 3.29838e-05 to 3.29848e-05
Heightened Def Con from 3.29848e-05 to 3.29849e-05
Heightened Def Con from 3.29849e-05 to 3.29849e-05
Heightened Def Con from 3.29849e-05 to 3.29849e-05
Heightened Def Con from 3.29849e-05 to 3.29859e-05
Heightened Def Con from 3.29859e-05 to 3.29859e-05
Heightened Def Con from 3.29859e-05 to 3.29869e-05
Heightened Def Con from 3.29869e-05 to 3.29869e-05
Heightened Def Con from 3.29869e-05 to 3.29869e-05
Heightened Def Con from 3.29869e-05 to 3.29869e-05
Heightened Def Con from 3.29869e-05 to 3.2987e-05
Heightened Def Con from 3.2987e-05 to 3.2988e-05
Heightened Def Con from 3.29881e-05 to 3.29881e-05
Heightened Def Con from 3.29881e-05 to 3.29881e-05
Heightened Def Con from 3.29881e-05 to 3.29881e-05
Heightened Def Con from 3.29881e-05 to 3.29881e-05
Heightened Def Con from 3.29881e-05 to 3.29882e-05
Heightened Def Con from 3.29882e-05 to 3.29882e-05
Heightened Def Con from 3.29882e-05 to 3.29882e-05
Heightened Def Con from 3.29882e-05 to 3.29882e-05
Heightened Def Con from 3.29882e-05 to 3.29882e-05
Heightened Def Con from 3.29882e-05 to 3.29882e-05
Heightened Def Con from 3.29882e-05 to 3.29892e-05
Heightened Def Con from 3.29892e-05 to 3.29893e-05
Heightened Def Con from 3.29893e-05 to 3.29893e-05
Heightened Def Con from 3.29893e-05 to 3.29893e-05
Heightened Def Con from 3.29893e-05 to 3.29893e-05
Heightened Def Con from 3.29893e-05 to 3.29893e-05
Heightened Def Con from 3.29893e-05 to 3.29894e-05
Heightened Def Con from 3.29894e-05 to 3.29894e-05
Heightened Def Con from 3.29894e-05 to 3.29894e-05
Heightened Def Con from 3.29894e-05 to 3.29894e-05
Heightened Def Con from 3.29894e-05 to 3.29904e-05
Heightened Def Con from 3.29904e-05 to 3.29904e-05
Heightened Def Con from 3.29904e-05 +to 3.29916e-05
Heightened Def Con from 3.29916e-05 to 3.29926e-05
Heightened Def Con from 3.29926e-05 to 3.29926e-05
Heightened Def Con from 3.29926e-05 to 3.29926e-05
Heightened Def Con from 3.29926e-05 to 3.29926e-05
Heightened Def Con from 3.29926e-05 to 3.29926e-05
Heightened Def Con from 3.29926e-05 to 3.29936e-05
Heightened Def Con from 3.29936e-05 to 3.29946e-05
Heightened Def Con from 3.29946e-05 to 3.29956e-05
Heightened Def Con from 3.29956e-05 to 3.29966e-05
Heightened Def Con from 3.29966e-05 to 3.29966e-05
Heightened Def Con from 3.29966e-05 to 3.29966e-05
Heightened Def Con from 3.29966e-05 to 3.29966e-05
Heightened Def Con from 3.29966e-05 to 3.29976e-05
Heightened Def Con from 3.29976e-05 to 3.29996e-05
Heightened Def Con from 3.29996e-05 to 3.30006e-05
Heightened Def Con from 3.30006e-05 to 3.30007e-05
Heightened Def Con from 3.30007e-05 to 3.30007e-05
Heightened Def Con from 3.30007e-05 to 3.30008e-05
Heightened Def Con from 3.30008e-05 to 3.30008e-05
Heightened Def Con from 3.30008e-05 to 3.30008e-05
Heightened Def Con from 3.30008e-05 to 3.30008e-05
Heightened Def Con from 3.30008e-05 to 3.30008e-05
Heightened Def Con from 3.30008e-05 to 3.30018e-05
Heightened Def Con from 3.30018e-05 to 3.30018e-05
Heightened Def Con from 3.30018e-05 to 3.30018e-05
Heightened Def Con from 3.30018e-05 to 3.30019e-05
Heightened Def Con from 3.30019e-05 to 3.30019e-05
Heightened Def Con from 3.30019e-05 to 3.30019e-05
Heightened Def Con from 3.30019e-05 to 3.30019e-05
Heightened Def Con from 3.30019e-05 to 3.30019e-05
Heightened Def Con from 3.30019e-05 to 3.30029e-05
Heightened Def Con from 3.30029e-05 to 3.30029e-05
Heightened Def Con from 3.30029e-05 to 3.30029e-05
Heightened Def Con from 3.30029e-05 to 3.30029e-05
Heightened Def Con from 3.30029e-05 to 3.30039e-05
Heightened Def Con from 3.30039e-05 to 3.3004e-05
Heightened Def Con from 3.3004e-05 to 3.3005e-05
Heightened Def Con from 3.3005e-05 to 3.3005e-05
Heightened Def Con from 3.3005e-05 to 3.3006e-05
Heightened Def Con from 3.3006e-05 to 3.3006e-05
Heightened Def Con from 3.3006e-05 to 3.3006e-05
Heightened Def Con from 3.3006e-05 to 3.3007e-05
Heightened Def Con from 3.3007e-05 +to 3.30071e-05
Heightened Def Con from 3.30071e-05 to 3.30071e-05
Heightened Def Con from 3.30071e-05 to 3.30071e-05
Heightened Def Con from 3.30071e-05 to 3.30071e-05
Heightened Def Con from 3.30071e-05 to 3.30071e-05
Heightened Def Con from 3.30071e-05 to 3.30072e-05
Heightened Def Con from 3.30072e-05 to 3.30072e-05
Heightened Def Con from 3.30072e-05 ++to 3.30082e-05
Heightened Def Con from 3.30082e-05 to 3.30082e-05
Heightened Def Con from 3.30082e-05 to 3.30092e-05
Heightened Def Con from 3.30092e-05 to 3.30092e-05
Heightened Def Con from 3.30092e-05 to 3.30093e-05
Heightened Def Con from 3.30093e-05 to 3.30094e-05
Heightened Def Con from 3.30094e-05 to 3.30094e-05
Heightened Def Con from 3.30094e-05 to 3.30094e-05
Heightened Def Con from 3.30094e-05 +to 3.30114e-05
Heightened Def Con from 3.30114e-05 to 3.30124e-05
Heightened Def Con from 3.30124e-05 to 3.30124e-05
Heightened Def Con from 3.30124e-05 to 3.30125e-05
Heightened Def Con from 3.30125e-05 to 3.30125e-05
Heightened Def Con from 3.30125e-05 to 3.30125e-05
Heightened Def Con from 3.30125e-05 to 3.30125e-05
Heightened Def Con from 3.30125e-05 to 3.30125e-05
Heightened Def Con from 3.30125e-05 to 3.30135e-05
Heightened Def Con from 3.30135e-05 to 3.30136e-05
Heightened Def Con from 3.30136e-05 to 3.30136e-05
Heightened Def Con from 3.30136e-05 to 3.30146e-05
Heightened Def Con from 3.30146e-05 to 3.30146e-05
Heightened Def Con from 3.30146e-05 to 3.30156e-05
Heightened Def Con from 3.30156e-05 to 3.30167e-05
Heightened Def Con from 3.30167e-05 +to 3.30167e-05
Heightened Def Con from 3.30167e-05 to 3.30167e-05
Heightened Def Con from 3.30167e-05 to 3.30177e-05
Heightened Def Con from 3.30177e-05 to 3.30179e-05
Heightened Def Con from 3.30179e-05 to 3.30189e-05
Heightened Def Con from 3.30189e-05 to 3.30189e-05
Heightened Def Con from 3.30189e-05 to 3.30189e-05
Heightened Def Con from 3.30189e-05 to 3.30199e-05
Heightened Def Con from 3.30199e-05 to 3.30209e-05
Heightened Def Con from 3.30209e-05 to 3.3021e-05
Heightened Def Con from 3.3021e-05 to 3.3022e-05
Heightened Def Con from 3.3022e-05 to 3.3023e-05
Heightened Def Con from 3.3023e-05 to 3.3024e-05
Heightened Def Con from 3.3024e-05 to 3.3024e-05
Heightened Def Con from 3.3024e-05 to 3.3025e-05
Heightened Def Con from 3.3025e-05 to 3.3025e-05
Heightened Def Con from 3.3025e-05 to 3.3026e-05
Heightened Def Con from 3.3026e-05 to 3.3026e-05
Heightened Def Con from 3.3026e-05 to 3.3026e-05
Heightened Def Con from 3.3026e-05 to 3.3027e-05
Heightened Def Con from 3.3027e-05 to 3.30271e-05
Heightened Def Con from 3.30271e-05 to 3.30271e-05
Heightened Def Con from 3.30271e-05 to 3.30271e-05
Heightened Def Con from 3.30271e-05 to 3.30271e-05
Heightened Def Con from 3.30271e-05 to 3.30272e-05
Heightened Def Con from 3.30272e-05 to 3.30272e-05
Heightened Def Con from 3.30272e-05 to 3.30272e-05
Heightened Def Con from 3.30272e-05 to 3.30272e-05
Heightened Def Con from 3.30272e-05 to 3.30273e-05
Heightened Def Con from 3.30273e-05 to 3.30273e-05
Heightened Def Con from 3.30273e-05 to 3.30285e-05
Heightened Def Con from 3.30285e-05 to 3.30285e-05
Heightened Def Con from 3.30285e-05 to 3.30285e-05
Heightened Def Con from 3.30285e-05 to 3.30285e-05
Heightened Def Con from 3.30285e-05 to 3.30295e-05
Heightened Def Con from 3.30295e-05 to 3.30296e-05
Heightened Def Con from 3.30296e-05 to 3.30296e-05
Heightened Def Con from 3.30296e-05 to 3.30296e-05
Heightened Def Con from 3.30296e-05 to 3.30296e-05
Heightened Def Con from 3.30296e-05 to 3.30296e-05
Heightened Def Con from 3.30296e-05 to 3.30296e-05
Heightened Def Con from 3.30296e-05 to 3.30297e-05
Heightened Def Con from 3.30297e-05 to 3.30297e-05
Heightened Def Con from 3.30297e-05 to 3.30307e-05
Heightened Def Con from 3.30307e-05 to 3.30307e-05
Heightened Def Con from 3.30307e-05 to 3.30317e-05
Heightened Def Con from 3.30317e-05 to 3.30317e-05
Heightened Def Con from 3.30317e-05 to 3.30318e-05
Heightened Def Con from 3.30318e-05 to 3.30318e-05
Heightened Def Con from 3.30318e-05 to 3.30328e-05
Heightened Def Con from 3.30328e-05 to 3.30328e-05
Heightened Def Con from 3.30328e-05 to 3.30328e-05
Heightened Def Con from 3.30328e-05 to 3.30338e-05
Heightened Def Con from 3.30338e-05 to 3.30338e-05
Heightened Def Con from 3.30338e-05 to 3.30338e-05
Heightened Def Con from 3.30338e-05 to 3.30348e-05
Heightened Def Con from 3.30348e-05 to 3.30348e-05
Heightened Def Con from 3.30348e-05 to 3.30348e-05
Heightened Def Con from 3.30348e-05 to 3.30348e-05
Heightened Def Con from 3.30348e-05 to 3.30348e-05
Heightened Def Con from 3.30348e-05 to 3.30348e-05
Heightened Def Con from 3.30348e-05 to 3.30348e-05
Heightened Def Con from 3.30348e-05 to 3.30358e-05
Heightened Def Con from 3.30358e-05 to 3.30358e-05
Heightened Def Con from 3.30358e-05 +to 3.30358e-05
Heightened Def Con from 3.30358e-05 to 3.30358e-05
Heightened Def Con from 3.30358e-05 to 3.30358e-05
Heightened Def Con from 3.30358e-05 ++++++++++++++++++++++++++++++++++++++++++++++++++Fatal Error: Analysis:  Time step too small; time = 3.30358e-05, timestep = 1.25e-19: trouble with npn-instance q1

