Circuit: * D:\Engineering\LTSPICE\Analog Project\Scaling adder.asc

Direct Newton iteration failed to find .op point.  (Use ".option noopiter" to skip.)
Starting Gmin stepping
Gmin = 10
Gmin = 1.07374
vernier = 0.5
vernier = 0.25
vernier = 0.125
vernier = 0.0625
Gmin = 1.08884
vernier = 0.03125
vernier = 0.015625
Gmin = 1.03523
vernier = 0.0078125
vernier = 0.0104167
vernier = 0.00520833
Gmin = 1.02119
vernier = 0.00260417
Gmin = 1.01391
vernier = 0.00347222
vernier = 0.00173611
vernier = 0.00231481
vernier = 0.00115741
Gmin = 1.01142
vernier = 0.00154321
vernier = 0.000771604
Gmin = 1.00928
vernier = 0.00102881
vernier = 0.000514403
Gmin = 1.00759
vernier = 0.00068587
vernier = 0.000514403
Gmin = 1.00638
vernier = 0.00068587
vernier = 0.000514402
Gmin = 0
Gmin = 0
Gmin stepping failed

Starting source stepping with srcstepmethod=0
Source Step = 3.0303%
Source Step = 33.3333%
Source Step = 63.6364%
Source Step = 93.9394%
Source Step = 96.0227%
Source Step = 97.9167%
Source Step = 99.8106%
Source stepping succeeded in finding the operating point.


Date: Thu Oct  3 08:19:46 2024
Total elapsed time: 0.776 seconds.

tnom = 27
temp = 27
method = modified trap
totiter = 9213
traniter = 2082
tranpoints = 1042
accept = 1042
rejected = 0
matrix size = 72
fillins = 127
solver = Normal
Avg thread counts: 2.3/3.6/3.6/2.3
Matrix Compiler1: 9.86 KB object code size  4.2/2.3/[1.0]
Matrix Compiler2: 8.00 KB object code size  1.7/1.9/[1.2]

