LTspice 24.0.12 for Windows
Circuit: * D:\sem 3\lab\Analog_project\power_supply.asc
Start Time: Mon Nov  4 20:59:50 2024
solver = Normal
Maximum thread count: 12
tnom = 27
temp = 27
method = modified trap
WARNING: Node N002 is floating.

WARNING: Less than two connections to node -12v.  This node is used by v:u2:1:mon.
Direct Newton iteration for .op point succeeded.
Total elapsed time: 0.484 seconds.

