Circuit: * D:\Engineering\PYTHON\Analog-Computer\Simulations\Adder Subtractor\subtractor.asc

Direct Newton iteration for .op point succeeded.

Date: Wed Oct 16 14:30:59 2024
Total elapsed time: 0.186 seconds.

tnom = 27
temp = 27
method = modified trap
totiter = 15459
traniter = 15448
tranpoints = 5119
accept = 3440
rejected = 1679
matrix size = 41
fillins = 40
solver = Normal
Avg thread counts: 1.2/1.5/1.5/1.2
Matrix Compiler1: 3.73 KB object code size  2.2/0.8/[0.6]
Matrix Compiler2: 3.95 KB object code size  0.6/0.9/[0.6]

