LTspice 24.0.12 for Windows
Circuit: * E:\Projects\Analog-Computer\Simulations\squaring_multiplier\Multiplier_squaring.asc
Start Time: Tue Oct 15 10:45:30 2024
solver = Normal
Maximum thread count: 8
tnom = 27
temp = 27
method = modified trap
Direct Newton iteration for .op point succeeded.
Total elapsed time: 0.163 seconds.

