Circuit: * D:\Engineering\PYTHON\Analog-Computer\Simulations\squaring_multiplier\Multiplier_squaring.asc

Direct Newton iteration for .op point succeeded.

Date: Wed Oct 16 13:43:34 2024
Total elapsed time: 0.326 seconds.

tnom = 27
temp = 27
method = modified trap
totiter = 8472
traniter = 8460
tranpoints = 4205
accept = 2798
rejected = 1407
matrix size = 254
fillins = 370
solver = Normal
Avg thread counts: 1.3/1.7/1.7/1.3
Matrix Compiler1: 31.82 KB object code size  8.1/4.3/[3.1]
Matrix Compiler2: 28.27 KB object code size  3.3/4.9/[2.0]

