Circuit: * D:\Engineering\PYTHON\Analog-Computer\Simulations\Multiplier\Draft1.asc

Warning: Multiple definitions of model "2scr375p" Type: BJT
Warning: Multiple definitions of model "bc857b" Type: BJT
Warning: Multiple definitions of model "bc847c" Type: BJT
Warning: Multiple definitions of model "bc847b" Type: BJT
WARNING: Less than two connections to node nc_01.  This node is used by v1.
Early termination of direct N-R iteration.
Direct Newton iteration failed to find .op point.  (Use ".option noopiter" to skip.)
Starting Gmin stepping
Gmin = 10
Gmin = 1.07374
Gmin = 0.115292
Gmin = 0.0123794
Gmin = 0.00132923
Gmin = 0.000142725
Gmin = 1.5325e-05
Gmin = 1.6455e-06
Gmin = 1.76685e-07
Gmin = 1.89714e-08
Gmin = 2.03704e-09
Gmin = 2.18725e-10
Gmin = 2.34854e-11
Gmin = 2.52173e-12
Gmin = 2.70769e-13
Gmin = 0
Gmin stepping succeeded in finding the operating point.


Date: Fri Oct 18 16:05:45 2024
Total elapsed time: 6.705 seconds.

tnom = 27
temp = 27
method = modified trap
totiter = 1552584
traniter = 1552251
tranpoints = 600040
accept = 460002
rejected = 140038
matrix size = 35
fillins = 86
solver = Normal
Avg thread counts: 1.0/1.0/1.0/1.0
Matrix Compiler1: 8.64 KB object code size  2.3/1.0/[0.7]
Matrix Compiler2: 4.53 KB object code size  0.9/1.0/[0.7]

