Circuit: * D:\Engineering\PYTHON\Analog-Computer\Simulations\Multiplier\Draft2.asc

Warning: Multiple definitions of model "2scr375p" Type: BJT
Warning: Multiple definitions of model "bc857b" Type: BJT
Warning: Multiple definitions of model "bc847c" Type: BJT
Warning: Multiple definitions of model "bc847b" Type: BJT
Error on line 19 : v4 n006 0 v
	 Unknown parameter "v"
Error on line 20 : v5 n014 0 v
	 Unknown parameter "v"
v4: Missing value, assumed 0V @ DC
v5: Missing value, assumed 0V @ DC
Direct Newton iteration for .op point succeeded.

Date: Fri Oct 18 16:30:29 2024
Total elapsed time: 0.147 seconds.

tnom = 27
temp = 27
method = modified trap
totiter = 2091
traniter = 2086
tranpoints = 1042
accept = 1042
rejected = 0
matrix size = 39
fillins = 74
solver = Normal
Avg thread counts: 2.3/3.6/3.6/2.3
Matrix Compiler1: 7.34 KB object code size  2.5/1.2/[0.6]
Matrix Compiler2: 4.54 KB object code size  0.7/0.9/[0.4]

