Circuit: * D:\Engineering\PYTHON\Analog-Computer\Simulations\Multiplier\Multiplier2.asc

WARNING: Less than two connections to node n004.  This node is used by r1.
Direct Newton iteration for .op point succeeded.
Changing Tseed to 9.76562e-12

Date: Wed Oct  9 14:55:57 2024
Total elapsed time: 0.136 seconds.

tnom = 27
temp = 27
method = modified trap
totiter = 2882
traniter = 2840
tranpoints = 1142
accept = 1091
rejected = 50
matrix size = 140
fillins = 176
solver = Normal
Avg thread counts: 2.0/3.6/3.2/2.0
Matrix Compiler1: 14.61 KB object code size  4.9/2.2/[1.0]
Matrix Compiler2: 14.66 KB object code size  2.5/2.5/[0.9]

