Circuit: * D:\Engineering\PYTHON\Analog-Computer\Simulations\squaring_multiplier\Draft1.asc

Early termination of direct N-R iteration.
Direct Newton iteration failed to find .op point.  (Use ".option noopiter" to skip.)
Starting Gmin stepping
Gmin = 10
Gmin = 1.07374
Gmin = 0.115292
Gmin = 0.0123794
Gmin = 0.00132923
Gmin = 0.000142725
Gmin = 1.5325e-05
Gmin = 1.6455e-06
Gmin = 1.76685e-07
Gmin = 1.89714e-08
Gmin = 2.03704e-09
Gmin = 2.18725e-10
Gmin = 2.34854e-11
Gmin = 2.52173e-12
Gmin = 2.70769e-13
Gmin = 0
Gmin stepping succeeded in finding the operating point.

Heightened Def Con from 1.59406e-08 to 1.69562e-08
Heightened Def Con from 1.69699e-08 ++to 1.69699e-08
Heightened Def Con from 1.69699e-08 ++to 1.69699e-08
Heightened Def Con from 1.69699e-08 to 1.69699e-08
Heightened Def Con from 1.69699e-08 to 1.69699e-08
Heightened Def Con from 1.69699e-08 to 1.69699e-08
Heightened Def Con from 1.69699e-08 ++to 1.69699e-08
Heightened Def Con from 1.69699e-08 ++to 1.69699e-08
Heightened Def Con from 1.69699e-08 ++to 1.697e-08
Heightened Def Con from 1.697e-08 ++to 1.697e-08
Heightened Def Con from 1.697e-08 ++to 1.697e-08
Heightened Def Con from 1.697e-08 ++to 1.697e-08
Heightened Def Con from 1.697e-08 ++to 1.697e-08
Heightened Def Con from 1.697e-08 ++to 1.697e-08
Heightened Def Con from 1.697e-08 ++to 1.697e-08
Heightened Def Con from 1.697e-08 ++to 1.697e-08
Heightened Def Con from 1.697e-08 ++to 1.697e-08
Heightened Def Con from 1.697e-08 ++to 1.697e-08
Heightened Def Con from 1.697e-08 ++to 1.697e-08
Heightened Def Con from 1.697e-08 ++to 1.697e-08
Heightened Def Con from 1.697e-08 ++to 1.697e-08
Heightened Def Con from 1.697e-08 ++to 1.697e-08
Heightened Def Con from 1.697e-08 +++to 1.697e-08
Heightened Def Con from 1.697e-08 ++++to 1.697e-08
Heightened Def Con from 1.697e-08 to 1.697e-08
Heightened Def Con from 1.697e-08 +to 1.697e-08
Heightened Def Con from 1.697e-08 ++++to 1.697e-08
Heightened Def Con from 1.697e-08 ++++to 1.697e-08
Heightened Def Con from 1.697e-08 ++++to 1.697e-08
Heightened Def Con from 1.697e-08 ++++to 1.697e-08
Heightened Def Con from 1.697e-08 +++++to 1.697e-08
Heightened Def Con from 1.697e-08 to 1.697e-08
Heightened Def Con from 1.697e-08 +to 1.697e-08
Heightened Def Con from 1.697e-08 +++++to 1.697e-08
Heightened Def Con from 1.697e-08 +++++to 1.697e-08
Heightened Def Con from 1.697e-08 +++++to 1.697e-08
Heightened Def Con from 1.697e-08 +++++to 1.697e-08
Heightened Def Con from 1.697e-08 +++++to 1.697e-08
Heightened Def Con from 1.697e-08 +++++to 1.697e-08
Heightened Def Con from 1.697e-08 +++++to 1.697e-08
Heightened Def Con from 1.697e-08 +++++to 1.697e-08
Heightened Def Con from 1.697e-08 +++++to 1.697e-08
Heightened Def Con from 1.697e-08 +++++to 1.697e-08
Heightened Def Con from 1.697e-08 +++++to 1.697e-08
Heightened Def Con from 1.697e-08 +++++to 1.697e-08
Heightened Def Con from 1.697e-08 +to 1.697e-08
Heightened Def Con from 1.697e-08 to 1.697e-08
Heightened Def Con from 1.697e-08 +++++to 1.697e-08
Heightened Def Con from 1.697e-08 +++++to 1.697e-08
Heightened Def Con from 1.697e-08 ++to 1.697e-08
Heightened Def Con from 1.697e-08 to 1.697e-08
Heightened Def Con from 1.697e-08 to 1.697e-08
Heightened Def Con from 1.697e-08 ++to 1.697e-08
Heightened Def Con from 1.697e-08 ++to 1.697e-08
Heightened Def Con from 1.697e-08 ++++to 1.697e-08
Heightened Def Con from 1.697e-08 ++++to 1.697e-08
Heightened Def Con from 1.697e-08 +++++to 1.697e-08
Heightened Def Con from 1.697e-08 +++++to 1.697e-08
Heightened Def Con from 1.697e-08 +++++to 1.697e-08
Heightened Def Con from 1.697e-08 to 1.697e-08
Heightened Def Con from 1.697e-08 +to 1.697e-08
Heightened Def Con from 1.697e-08 +++++to 1.697e-08
Heightened Def Con from 1.697e-08 +to 1.697e-08
Heightened Def Con from 1.69704e-08 to 1.69704e-08
Heightened Def Con from 1.69704e-08 +to 1.69704e-08
Heightened Def Con from 1.69704e-08 +to 1.69704e-08
Heightened Def Con from 1.69704e-08 ++to 1.69704e-08
Heightened Def Con from 1.69704e-08 ++to 1.69704e-08
Heightened Def Con from 1.69704e-08 ++to 1.69704e-08
Heightened Def Con from 1.69704e-08 +to 1.69704e-08
Heightened Def Con from 1.69704e-08 +to 1.69704e-08
Heightened Def Con from 1.69704e-08 +to 1.69704e-08
Heightened Def Con from 1.69704e-08 to 1.69704e-08
Heightened Def Con from 1.69704e-08 to 1.69704e-08
Heightened Def Con from 1.69704e-08 to 1.69704e-08
Heightened Def Con from 1.69704e-08 +to 1.69704e-08
Heightened Def Con from 1.69704e-08 ++to 1.69704e-08
Heightened Def Con from 1.69704e-08 ++to 1.69704e-08
Heightened Def Con from 1.69704e-08 ++to 1.69704e-08
Heightened Def Con from 1.69704e-08 to 1.69704e-08
Heightened Def Con from 1.69704e-08 to 1.69704e-08
Heightened Def Con from 1.69704e-08 to 1.69704e-08
Heightened Def Con from 1.69704e-08 to 1.69704e-08
Heightened Def Con from 1.69704e-08 to 1.69704e-08
Heightened Def Con from 1.69704e-08 to 1.69704e-08
Heightened Def Con from 1.69704e-08 to 1.69704e-08
Heightened Def Con from 1.69704e-08 to 1.69704e-08
Heightened Def Con from 1.69704e-08 ++to 1.69704e-08
Heightened Def Con from 1.69704e-08 +to 1.69704e-08
Heightened Def Con from 1.69704e-08 to 1.69704e-08
Heightened Def Con from 1.69704e-08 to 1.69704e-08
Heightened Def Con from 1.69704e-08 +to 1.69704e-08
Heightened Def Con from 1.69704e-08 +to 1.69704e-08
Heightened Def Con from 1.69704e-08 to 1.69704e-08
Heightened Def Con from 1.69704e-08 to 1.69704e-08
Heightened Def Con from 1.69704e-08 to 1.69704e-08
Heightened Def Con from 1.69704e-08 +to 1.69704e-08
Heightened Def Con from 1.69704e-08 to 1.69704e-08
Heightened Def Con from 1.69704e-08 +to 1.69704e-08
Heightened Def Con from 1.69704e-08 to 1.69704e-08
Heightened Def Con from 1.69704e-08 to 1.69704e-08
Heightened Def Con from 1.69704e-08 +to 1.69704e-08
Heightened Def Con from 1.69704e-08 +to 1.69704e-08
Heightened Def Con from 1.69704e-08 +to 1.69704e-08
Heightened Def Con from 1.69704e-08 to 1.69704e-08
Heightened Def Con from 1.69704e-08 to 1.69704e-08
Heightened Def Con from 1.69704e-08 +to 1.69704e-08
Heightened Def Con from 1.69704e-08 ++to 1.69704e-08
Heightened Def Con from 1.69704e-08 ++to 1.69704e-08
Heightened Def Con from 1.69704e-08 ++to 1.69704e-08
Heightened Def Con from 1.69704e-08 ++to 1.69704e-08
Heightened Def Con from 1.69704e-08 ++to 1.69704e-08
Heightened Def Con from 1.69704e-08 ++to 1.69704e-08
Heightened Def Con from 1.69704e-08 ++to 1.69704e-08
Heightened Def Con from 1.69704e-08 ++to 1.69704e-08
Heightened Def Con from 1.69704e-08 ++to 1.69704e-08
Heightened Def Con from 1.69704e-08 ++to 1.69704e-08
Heightened Def Con from 1.69704e-08 +++to 1.69704e-08
Heightened Def Con from 1.69704e-08 +to 1.69704e-08
Heightened Def Con from 1.69704e-08 +to 1.69704e-08
Heightened Def Con from 1.69704e-08 ++to 1.69704e-08
Heightened Def Con from 1.69704e-08 to 1.69704e-08
Heightened Def Con from 1.69704e-08 to 1.69704e-08
Heightened Def Con from 1.69704e-08 +++to 1.69704e-08
Heightened Def Con from 1.69704e-08 to 1.69704e-08
Heightened Def Con from 1.69704e-08 ++++to 1.69704e-08
Heightened Def Con from 1.69704e-08 to 1.69704e-08
Heightened Def Con from 1.69704e-08 to 1.69704e-08
Heightened Def Con from 1.69704e-08 +++to 1.69704e-08
Heightened Def Con from 1.69704e-08 to 1.69704e-08
Heightened Def Con from 1.69704e-08 to 1.69704e-08
Heightened Def Con from 1.69704e-08 +++to 1.69704e-08
Heightened Def Con from 1.69704e-08 +++to 1.69704e-08
Heightened Def Con from 1.69704e-08 to 1.69704e-08
Heightened Def Con from 1.69704e-08 ++to 1.69704e-08
Heightened Def Con from 1.69704e-08 +to 1.69704e-08
Heightened Def Con from 1.69704e-08 +to 1.69704e-08
Heightened Def Con from 1.69704e-08 +to 1.69704e-08
Heightened Def Con from 1.69704e-08 to 1.69704e-08
Heightened Def Con from 1.69704e-08 to 1.69704e-08
Heightened Def Con from 1.69704e-08 to 1.69704e-08
Heightened Def Con from 1.69704e-08 to 1.69704e-08
Heightened Def Con from 1.69704e-08 to 1.69704e-08
Heightened Def Con from 1.69704e-08 +++to 1.69704e-08
Heightened Def Con from 1.69704e-08 to 1.69704e-08
Heightened Def Con from 1.69704e-08 ++to 1.69704e-08
Heightened Def Con from 1.69704e-08 +to 1.69704e-08
Heightened Def Con from 1.69704e-08 to 1.69704e-08
Heightened Def Con from 1.69704e-08 to 1.69704e-08
Heightened Def Con from 1.69704e-08 +++to 1.69704e-08
Heightened Def Con from 1.69704e-08 +to 1.69704e-08
Heightened Def Con from 1.69704e-08 to 1.69704e-08
Heightened Def Con from 1.69704e-08 ++++to 1.69704e-08
Heightened Def Con from 1.69704e-08 +to 1.69704e-08
Heightened Def Con from 1.69704e-08 ++to 1.69704e-08
Heightened Def Con from 1.69704e-08 to 1.69704e-08
Heightened Def Con from 1.69704e-08 to 1.69704e-08
Heightened Def Con from 1.69704e-08 ++++to 1.69704e-08
Heightened Def Con from 1.69704e-08 to 1.69704e-08
Heightened Def Con from 1.69704e-08 ++to 1.69704e-08
Heightened Def Con from 1.69704e-08 to 1.69704e-08
Heightened Def Con from 1.69704e-08 ++to 1.69704e-08
Heightened Def Con from 1.69704e-08 to 1.69704e-08
Heightened Def Con from 1.69704e-08 +to 1.69704e-08
Heightened Def Con from 1.69704e-08 ++++to 1.69704e-08
Heightened Def Con from 1.69704e-08 ++++to 1.69704e-08
Heightened Def Con from 1.69704e-08 ++++to 1.69705e-08
Heightened Def Con from 1.69705e-08 to 1.69705e-08
Heightened Def Con from 1.69705e-08 to 1.69705e-08
Heightened Def Con from 1.69705e-08 to 1.69705e-08
Heightened Def Con from 1.69705e-08 to 1.69705e-08
Heightened Def Con from 1.69705e-08 to 1.69705e-08
Heightened Def Con from 1.69705e-08 ++to 1.69705e-08
Heightened Def Con from 1.69705e-08 to 1.69705e-08
Heightened Def Con from 1.69705e-08 ++to 1.69705e-08
Heightened Def Con from 1.69705e-08 +to 1.69705e-08
Heightened Def Con from 1.69705e-08 +to 1.69705e-08
Heightened Def Con from 1.69705e-08 to 1.69705e-08
Heightened Def Con from 1.69705e-08 +to 1.69705e-08
Heightened Def Con from 1.69705e-08 to 1.69705e-08
Heightened Def Con from 1.69705e-08 to 1.69705e-08
Heightened Def Con from 1.69705e-08 +to 1.69705e-08
Heightened Def Con from 1.69705e-08 +to 1.69705e-08
Heightened Def Con from 1.69705e-08 to 1.69705e-08
Heightened Def Con from 1.69705e-08 +to 1.69705e-08
Heightened Def Con from 1.69705e-08 ++to 1.69705e-08
Heightened Def Con from 1.69705e-08 to 1.69705e-08
Heightened Def Con from 1.69705e-08 +++++to 1.69705e-08
Heightened Def Con from 1.69705e-08 +to 1.69705e-08
Heightened Def Con from 1.69705e-08 to 1.69705e-08
Heightened Def Con from 1.69705e-08 to 1.69705e-08
Heightened Def Con from 1.69705e-08 ++to 1.69705e-08
Heightened Def Con from 1.69705e-08 +to 1.69705e-08
Heightened Def Con from 1.69705e-08 +to 1.69705e-08
Heightened Def Con from 1.69705e-08 to 1.69705e-08
Heightened Def Con from 1.69705e-08 +++to 1.69705e-08
Heightened Def Con from 1.69705e-08 to 1.69705e-08
Heightened Def Con from 1.69705e-08 +to 1.69705e-08
Heightened Def Con from 1.69705e-08 +++to 1.69705e-08
Heightened Def Con from 1.69705e-08 to 1.69705e-08
Heightened Def Con from 1.69705e-08 +++++to 1.69705e-08
Heightened Def Con from 1.69705e-08 +++to 1.69705e-08
Heightened Def Con from 1.69705e-08 to 1.69705e-08
Heightened Def Con from 1.69705e-08 +to 1.69705e-08
Heightened Def Con from 1.69705e-08 +to 1.69705e-08
Heightened Def Con from 1.69705e-08 to 1.69705e-08
Heightened Def Con from 1.69705e-08 +++to 1.69705e-08
Heightened Def Con from 1.69705e-08 to 1.69705e-08
Heightened Def Con from 1.69705e-08 +++to 1.69705e-08
Heightened Def Con from 1.69705e-08 to 1.69705e-08
Heightened Def Con from 1.69705e-08 +++to 1.69705e-08
Heightened Def Con from 1.69705e-08 ++to 1.69705e-08
Heightened Def Con from 1.69705e-08 ++to 1.69705e-08
Heightened Def Con from 1.69705e-08 ++to 1.69705e-08
Heightened Def Con from 1.69705e-08 +to 1.69705e-08
Heightened Def Con from 1.69705e-08 ++to 1.69705e-08
Heightened Def Con from 1.69705e-08 to 1.69705e-08
Heightened Def Con from 1.69705e-08 +to 1.69705e-08
Heightened Def Con from 1.69705e-08 +to 1.69705e-08
Heightened Def Con from 1.69705e-08 to 1.69705e-08
Heightened Def Con from 1.69705e-08 +to 1.69705e-08
Heightened Def Con from 1.69705e-08 +++to 1.69705e-08
Heightened Def Con from 1.69705e-08 ++to 1.69705e-08
Heightened Def Con from 1.69705e-08 to 1.69705e-08
Heightened Def Con from 1.69705e-08 +to 1.69705e-08
Heightened Def Con from 1.69705e-08 +to 1.69705e-08
Heightened Def Con from 1.69705e-08 to 1.69705e-08
Heightened Def Con from 1.69705e-08 to 1.69705e-08
Heightened Def Con from 1.69705e-08 to 1.69705e-08
Heightened Def Con from 1.69705e-08 to 1.69705e-08
Heightened Def Con from 1.69705e-08 to 1.69705e-08
Heightened Def Con from 1.69705e-08 ++to 1.69705e-08
Heightened Def Con from 1.69705e-08 +to 1.69705e-08
Heightened Def Con from 1.69705e-08 +to 1.69705e-08
Heightened Def Con from 1.69705e-08 +to 1.69705e-08
Heightened Def Con from 1.69705e-08 to 1.69705e-08
Heightened Def Con from 1.69705e-08 to 1.69705e-08
Heightened Def Con from 1.69705e-08 +to 1.69705e-08
Heightened Def Con from 1.69705e-08 ++to 1.69705e-08
Heightened Def Con from 1.69705e-08 +to 1.69705e-08
Heightened Def Con from 1.69705e-08 +to 1.69705e-08
Heightened Def Con from 1.69705e-08 +to 1.69705e-08
Heightened Def Con from 1.69705e-08 to 1.69705e-08
Heightened Def Con from 1.69705e-08 to 1.69705e-08
Heightened Def Con from 1.69705e-08 ++to 1.69705e-08
Heightened Def Con from 1.69705e-08 to 1.69705e-08
Heightened Def Con from 1.69705e-08 to 1.69705e-08
Heightened Def Con from 1.69705e-08 +to 1.69705e-08
Heightened Def Con from 1.69705e-08 +to 1.69705e-08
Heightened Def Con from 1.69705e-08 +to 1.69705e-08
Heightened Def Con from 1.69705e-08 ++to 1.69705e-08
Heightened Def Con from 1.69705e-08 to 1.69705e-08
Heightened Def Con from 1.69705e-08 +to 1.69705e-08
Heightened Def Con from 1.69705e-08 to 1.69705e-08
Heightened Def Con from 1.69705e-08 to 1.69705e-08
Heightened Def Con from 1.69705e-08 to 1.69705e-08
Heightened Def Con from 1.69705e-08 to 1.69705e-08
Heightened Def Con from 1.69705e-08 to 1.69705e-08
Heightened Def Con from 1.69705e-08 to 1.69705e-08
Heightened Def Con from 1.69705e-08 +to 1.69705e-08
Heightened Def Con from 1.69705e-08 +to 1.69705e-08
Heightened Def Con from 1.69705e-08 ++to 1.69705e-08
Heightened Def Con from 1.69705e-08 to 1.69705e-08
Heightened Def Con from 1.69705e-08 to 1.69705e-08
Heightened Def Con from 1.69705e-08 +to 1.69705e-08
Heightened Def Con from 1.69705e-08 ++to 1.69705e-08
Heightened Def Con from 1.69705e-08 +to 1.69705e-08
Heightened Def Con from 1.69705e-08 ++to 1.69705e-08
Heightened Def Con from 1.69705e-08 +to 1.69705e-08
Heightened Def Con from 1.69705e-08 +++++to 1.69705e-08
Heightened Def Con from 1.69705e-08 ++to 1.69705e-08
Heightened Def Con from 1.69705e-08 ++to 1.69705e-08
Heightened Def Con from 1.69705e-08 ++to 1.69705e-08
Heightened Def Con from 1.69705e-08 +to 1.69705e-08
Heightened Def Con from 1.69705e-08 to 1.69705e-08
Heightened Def Con from 1.69705e-08 to 1.69705e-08
Heightened Def Con from 1.69705e-08 +++++to 1.69705e-08
Heightened Def Con from 1.69705e-08 +++to 1.69705e-08
Heightened Def Con from 1.69705e-08 to 1.69705e-08
Heightened Def Con from 1.69705e-08 +to 1.69705e-08
Heightened Def Con from 1.69705e-08 to 1.69705e-08
Heightened Def Con from 1.69705e-08 to 1.69705e-08
Heightened Def Con from 1.69705e-08 to 1.69705e-08
Heightened Def Con from 1.69705e-08 to 1.69705e-08
Heightened Def Con from 1.69705e-08 to 1.69705e-08
Heightened Def Con from 1.69705e-08 to 1.69705e-08
Heightened Def Con from 1.69705e-08 to 1.69705e-08
Heightened Def Con from 1.69705e-08 to 1.69705e-08
Heightened Def Con from 1.69705e-08 ++to 1.69705e-08
Heightened Def Con from 1.69705e-08 to 1.69705e-08
Heightened Def Con from 1.69705e-08 to 1.69705e-08
Heightened Def Con from 1.69705e-08 to 1.69705e-08
Heightened Def Con from 1.69705e-08 +to 1.69705e-08
Heightened Def Con from 1.69705e-08 +to 1.69705e-08
Heightened Def Con from 1.69705e-08 +to 1.69705e-08
Heightened Def Con from 1.69705e-08 +++to 1.69705e-08
Heightened Def Con from 1.69705e-08 +to 1.69705e-08
Heightened Def Con from 1.69705e-08 to 1.69705e-08
Heightened Def Con from 1.69705e-08 +++++to 1.69705e-08
Heightened Def Con from 1.69705e-08 to 1.69705e-08
Heightened Def Con from 1.69705e-08 to 1.69705e-08
Heightened Def Con from 1.69705e-08 to 1.69705e-08
Heightened Def Con from 1.69705e-08 to 1.69705e-08
Heightened Def Con from 1.69705e-08 to 1.69705e-08
Heightened Def Con from 1.69705e-08 to 1.69705e-08
Heightened Def Con from 1.69705e-08 +to 1.69705e-08
Heightened Def Con from 1.69705e-08 to 1.69705e-08
Heightened Def Con from 1.69705e-08 +to 1.69705e-08
Heightened Def Con from 1.69705e-08 to 1.69705e-08
Heightened Def Con from 1.69705e-08 ++to 1.69705e-08
Heightened Def Con from 1.69705e-08 to 1.69705e-08
Heightened Def Con from 1.69705e-08 +++to 1.69705e-08
Heightened Def Con from 1.69705e-08 ++to 1.69705e-08
Heightened Def Con from 1.69705e-08 ++to 1.69705e-08
Heightened Def Con from 1.69705e-08 to 1.69705e-08
Heightened Def Con from 1.69705e-08 +to 1.69705e-08
Heightened Def Con from 1.69705e-08 to 1.69705e-08
Heightened Def Con from 1.69705e-08 to 1.69705e-08
Heightened Def Con from 1.69705e-08 to 1.69705e-08
Heightened Def Con from 1.69705e-08 ++to 1.69705e-08
Heightened Def Con from 1.69705e-08 +to 1.69705e-08
Heightened Def Con from 1.69705e-08 +++++to 1.69705e-08
Heightened Def Con from 1.69705e-08 to 1.69705e-08
Heightened Def Con from 1.69705e-08 ++to 1.69705e-08
Heightened Def Con from 1.69705e-08 ++to 1.69705e-08
Heightened Def Con from 1.69705e-08 ++to 1.69705e-08
Heightened Def Con from 1.69705e-08 to 1.69705e-08
Heightened Def Con from 1.69705e-08 ++to 1.69705e-08
Heightened Def Con from 1.69705e-08 +to 1.69705e-08
Heightened Def Con from 1.69705e-08 +to 1.69705e-08
Heightened Def Con from 1.69705e-08 +to 1.69705e-08
Heightened Def Con from 1.69705e-08 +to 1.69705e-08
Heightened Def Con from 1.69705e-08 to 1.69705e-08
Heightened Def Con from 1.69705e-08 to 1.69705e-08
Heightened Def Con from 1.69705e-08 to 1.69705e-08
Heightened Def Con from 1.69705e-08 +to 1.69705e-08
Heightened Def Con from 1.69705e-08 +++++to 1.69705e-08
Heightened Def Con from 1.69705e-08 to 1.69705e-08
Heightened Def Con from 1.69705e-08 +to 1.69705e-08
Heightened Def Con from 1.69705e-08 +to 1.69705e-08
Heightened Def Con from 1.69705e-08 to 1.69705e-08
Heightened Def Con from 1.69705e-08 to 1.69705e-08
Heightened Def Con from 1.69705e-08 to 1.69705e-08
Heightened Def Con from 1.69705e-08 +to 1.69705e-08
Heightened Def Con from 1.69705e-08 +to 1.69705e-08
Heightened Def Con from 1.69705e-08 to 1.69705e-08
Heightened Def Con from 1.69705e-08 ++++to 1.69705e-08
Heightened Def Con from 1.69705e-08 +to 1.69705e-08
Heightened Def Con from 1.69705e-08 +to 1.69705e-08
Heightened Def Con from 1.69705e-08 to 1.69705e-08
Heightened Def Con from 1.69705e-08 to 1.69705e-08
Heightened Def Con from 1.69705e-08 +to 1.69705e-08
Heightened Def Con from 1.69705e-08 to 1.69705e-08
Heightened Def Con from 1.69705e-08 ++to 1.69705e-08
Heightened Def Con from 1.69705e-08 +to 1.69705e-08
Heightened Def Con from 1.69705e-08 +to 1.69705e-08
Heightened Def Con from 1.69705e-08 to 1.69705e-08
Heightened Def Con from 1.69705e-08 to 1.69705e-08
Heightened Def Con from 1.69705e-08 +to 1.69705e-08
Heightened Def Con from 1.69705e-08 to 1.69705e-08
Heightened Def Con from 1.69705e-08 ++to 1.69705e-08
Heightened Def Con from 1.69705e-08 +++to 1.69705e-08
Heightened Def Con from 1.69705e-08 to 1.69705e-08
Heightened Def Con from 1.69705e-08 to 1.69705e-08
Heightened Def Con from 1.69705e-08 to 1.69705e-08
Heightened Def Con from 1.69705e-08 to 1.69705e-08
Heightened Def Con from 1.69705e-08 to 1.69705e-08
Heightened Def Con from 1.69705e-08 to 1.69705e-08
Heightened Def Con from 1.69705e-08 ++to 1.69705e-08
Heightened Def Con from 1.69705e-08 +++++to 1.69705e-08
Heightened Def Con from 1.69705e-08 to 1.69705e-08
Heightened Def Con from 1.69705e-08 to 1.69705e-08
Heightened Def Con from 1.69705e-08 to 1.69705e-08
Heightened Def Con from 1.69705e-08 +++to 1.69705e-08
Heightened Def Con from 1.69705e-08 +++to 1.69705e-08
Heightened Def Con from 1.69705e-08 +to 1.69705e-08
Heightened Def Con from 1.69705e-08 +to 1.69705e-08
Heightened Def Con from 1.69705e-08 ++to 1.69705e-08
Heightened Def Con from 1.69705e-08 +to 1.69705e-08
Heightened Def Con from 1.69705e-08 to 1.69705e-08
Heightened Def Con from 1.69705e-08 +to 1.69705e-08
Heightened Def Con from 1.69705e-08 to 1.69705e-08
Heightened Def Con from 1.69705e-08 +to 1.69705e-08
Heightened Def Con from 1.69705e-08 ++to 1.69705e-08
Heightened Def Con from 1.69705e-08 to 1.69705e-08
Heightened Def Con from 1.69705e-08 to 1.69705e-08
Heightened Def Con from 1.69705e-08 +to 1.69705e-08
Heightened Def Con from 1.69705e-08 +to 1.69705e-08
Heightened Def Con from 1.69705e-08 to 1.69705e-08
Heightened Def Con from 1.69705e-08 ++to 1.69705e-08
Heightened Def Con from 1.69705e-08 to 1.69705e-08
Heightened Def Con from 1.69705e-08 to 1.69705e-08
Heightened Def Con from 1.69705e-08 +to 1.69705e-08
Heightened Def Con from 1.69705e-08 to 1.69705e-08
Heightened Def Con from 1.69705e-08 ++to 1.69705e-08
Heightened Def Con from 1.69705e-08 to 1.69705e-08
Heightened Def Con from 1.69705e-08 +to 1.69705e-08
Heightened Def Con from 1.69705e-08 to 1.69705e-08
Heightened Def Con from 1.69705e-08 to 1.69705e-08
Heightened Def Con from 1.69705e-08 ++to 1.69705e-08
Heightened Def Con from 1.69705e-08 to 1.69705e-08
Heightened Def Con from 1.69705e-08 ++to 1.69705e-08
Heightened Def Con from 1.69705e-08 to 1.69705e-08
Heightened Def Con from 1.69705e-08 +to 1.69705e-08
Heightened Def Con from 1.69705e-08 +to 1.69705e-08
Heightened Def Con from 1.69705e-08 +to 1.69705e-08
Heightened Def Con from 1.69705e-08 ++to 1.69705e-08
Heightened Def Con from 1.69705e-08 +to 1.69705e-08
Heightened Def Con from 1.69705e-08 +to 1.69705e-08
Heightened Def Con from 1.69705e-08 +to 1.69705e-08
Heightened Def Con from 1.69705e-08 to 1.69705e-08
Heightened Def Con from 1.69705e-08 +to 1.69705e-08
Heightened Def Con from 1.69705e-08 to 1.69705e-08
Heightened Def Con from 1.69705e-08 to 1.69705e-08
Heightened Def Con from 1.69705e-08 to 1.69705e-08
Heightened Def Con from 1.69705e-08 +to 1.69705e-08
Heightened Def Con from 1.69705e-08 to 1.69705e-08
Heightened Def Con from 1.69705e-08 to 1.69705e-08
Heightened Def Con from 1.69705e-08 ++to 1.69705e-08
Heightened Def Con from 1.69705e-08 +to 1.69705e-08
Heightened Def Con from 1.69705e-08 +to 1.69705e-08
Heightened Def Con from 1.69705e-08 to 1.69705e-08
Heightened Def Con from 1.69705e-08 to 1.69705e-08
Heightened Def Con from 1.69705e-08 +to 1.69705e-08
Heightened Def Con from 1.69705e-08 to 1.69705e-08
Heightened Def Con from 1.69705e-08 to 1.69705e-08
Heightened Def Con from 1.69705e-08 +to 1.69705e-08
Heightened Def Con from 1.69705e-08 ++to 1.69705e-08
Heightened Def Con from 1.69705e-08 +to 1.69705e-08
Heightened Def Con from 1.69705e-08 to 1.69705e-08
Heightened Def Con from 1.69705e-08 to 1.69705e-08
Heightened Def Con from 1.69705e-08 +to 1.69705e-08
Heightened Def Con from 1.69705e-08 +to 1.69705e-08
Heightened Def Con from 1.69705e-08 to 1.69705e-08
Heightened Def Con from 1.69705e-08 +to 1.69705e-08
Heightened Def Con from 1.69705e-08 +to 1.69705e-08
Heightened Def Con from 1.69705e-08 +++to 1.69705e-08
Heightened Def Con from 1.69705e-08 to 1.69705e-08
Heightened Def Con from 1.69705e-08 to 1.69705e-08
Heightened Def Con from 1.69705e-08 to 1.69705e-08
Heightened Def Con from 1.69705e-08 +to 1.69705e-08
Heightened Def Con from 1.69705e-08 to 1.69705e-08
Heightened Def Con from 1.69705e-08 to 1.69705e-08
Heightened Def Con from 1.69705e-08 to 1.69705e-08
Heightened Def Con from 1.69705e-08 to 1.69705e-08
Heightened Def Con from 1.69705e-08 ++++to 1.69705e-08
Heightened Def Con from 1.69705e-08 to 1.69705e-08
Heightened Def Con from 1.69705e-08 to 1.69705e-08
Heightened Def Con from 1.69705e-08 ++to 1.69705e-08
Heightened Def Con from 1.69705e-08 +to 1.69705e-08
Heightened Def Con from 1.69705e-08 ++to 1.69705e-08
Heightened Def Con from 1.69705e-08 to 1.69705e-08
Heightened Def Con from 1.69705e-08 to 1.69705e-08
Heightened Def Con from 1.69705e-08 ++++to 1.69705e-08
Heightened Def Con from 1.69705e-08 ++to 1.69705e-08
Heightened Def Con from 1.69705e-08 to 1.69705e-08
Heightened Def Con from 1.69705e-08 to 1.69705e-08
Heightened Def Con from 1.69705e-08 ++to 1.69705e-08
Heightened Def Con from 1.69705e-08 to 1.69705e-08
Heightened Def Con from 1.69705e-08 to 1.69705e-08
Heightened Def Con from 1.69705e-08 +to 1.69705e-08
Heightened Def Con from 1.69705e-08 to 1.69705e-08
Heightened Def Con from 1.69705e-08 to 1.69705e-08
Heightened Def Con from 1.69705e-08 to 1.69705e-08
Heightened Def Con from 1.69705e-08 +to 1.69705e-08
Heightened Def Con from 1.69705e-08 to 1.69705e-08
Heightened Def Con from 1.69705e-08 to 1.69705e-08
Heightened Def Con from 1.69705e-08 +to 1.69705e-08
Heightened Def Con from 1.69705e-08 +++++to 1.69705e-08
Heightened Def Con from 1.69705e-08 to 1.69705e-08
Heightened Def Con from 1.69705e-08 ++to 1.69705e-08
Heightened Def Con from 1.69705e-08 ++to 1.69705e-08
Heightened Def Con from 1.69705e-08 +to 1.69705e-08
Heightened Def Con from 1.69705e-08 +++to 1.69705e-08
Heightened Def Con from 1.69705e-08 +to 1.69705e-08
Heightened Def Con from 1.69705e-08 +to 1.69705e-08
Heightened Def Con from 1.69705e-08 to 1.69705e-08
Heightened Def Con from 1.69705e-08 +to 1.69705e-08
Heightened Def Con from 1.69705e-08 to 1.69705e-08
Heightened Def Con from 1.69705e-08 to 1.69705e-08
Heightened Def Con from 1.69705e-08 to 1.69705e-08
Heightened Def Con from 1.69705e-08 ++to 1.69705e-08
Heightened Def Con from 1.69705e-08 to 1.69705e-08
Heightened Def Con from 1.69705e-08 +to 1.69705e-08
Heightened Def Con from 1.69705e-08 to 1.69705e-08
Heightened Def Con from 1.69705e-08 to 1.69705e-08
Heightened Def Con from 1.69705e-08 +to 1.69705e-08
Heightened Def Con from 1.69705e-08 to 1.69705e-08
Heightened Def Con from 1.69705e-08 to 1.69705e-08
Heightened Def Con from 1.69705e-08 to 1.69705e-08
Heightened Def Con from 1.69705e-08 to 1.69705e-08
Heightened Def Con from 1.69705e-08 ++to 1.69705e-08
Heightened Def Con from 1.69705e-08 to 1.69705e-08
Heightened Def Con from 1.69705e-08 to 1.69705e-08
Heightened Def Con from 1.69705e-08 to 1.69705e-08
Heightened Def Con from 1.69705e-08 ++to 1.69705e-08
Heightened Def Con from 1.69705e-08 +to 1.69705e-08
Heightened Def Con from 1.69705e-08 +to 1.69705e-08
Heightened Def Con from 1.69705e-08 +to 1.69705e-08
Heightened Def Con from 1.69705e-08 to 1.69705e-08
Heightened Def Con from 1.69705e-08 to 1.69705e-08
Heightened Def Con from 1.69705e-08 to 1.69705e-08
Heightened Def Con from 1.69705e-08 +to 1.69705e-08
Heightened Def Con from 1.69705e-08 ++to 1.69705e-08
Heightened Def Con from 1.69705e-08 to 1.69705e-08
Heightened Def Con from 1.69705e-08 to 1.69705e-08
Heightened Def Con from 1.69705e-08 ++to 1.69705e-08
Heightened Def Con from 1.69705e-08 to 1.69705e-08
Heightened Def Con from 1.69705e-08 +to 1.69705e-08
Heightened Def Con from 1.69705e-08 to 1.69705e-08
Heightened Def Con from 1.69705e-08 +to 1.69705e-08
Heightened Def Con from 1.69705e-08 to 1.69705e-08
Heightened Def Con from 1.69705e-08 to 1.69705e-08
Heightened Def Con from 1.69705e-08 +to 1.69705e-08
Heightened Def Con from 1.69705e-08 ++to 1.69705e-08
Heightened Def Con from 1.69705e-08 ++to 1.69705e-08
Heightened Def Con from 1.69705e-08 to 1.69705e-08
Heightened Def Con from 1.69705e-08 +to 1.69705e-08
Heightened Def Con from 1.69705e-08 to 1.69705e-08
Heightened Def Con from 1.69705e-08 to 1.69705e-08
Heightened Def Con from 1.69705e-08 to 1.69705e-08
Heightened Def Con from 1.69705e-08 +to 1.69705e-08
Heightened Def Con from 1.69705e-08 to 1.69705e-08
Heightened Def Con from 1.69705e-08 ++to 1.69705e-08
Heightened Def Con from 1.69705e-08 +to 1.69705e-08
Heightened Def Con from 1.69705e-08 +to 1.69705e-08
Heightened Def Con from 1.69705e-08 to 1.69705e-08
Heightened Def Con from 1.69705e-08 to 1.69705e-08
Heightened Def Con from 1.69705e-08 +++to 1.69705e-08
Heightened Def Con from 1.69705e-08 +++to 1.69705e-08
Heightened Def Con from 1.69705e-08 to 1.69705e-08
Heightened Def Con from 1.69705e-08 to 1.69705e-08
Heightened Def Con from 1.69705e-08 ++to 1.69705e-08
Heightened Def Con from 1.69705e-08 to 1.69705e-08
Heightened Def Con from 1.69705e-08 to 1.69705e-08
Heightened Def Con from 1.69705e-08 to 1.69705e-08
Heightened Def Con from 1.69705e-08 +to 1.69705e-08
Heightened Def Con from 1.69705e-08 +++to 1.69705e-08
Heightened Def Con from 1.69705e-08 to 1.69705e-08
Heightened Def Con from 1.69705e-08 ++to 1.69705e-08
Heightened Def Con from 1.69705e-08 to 1.69705e-08
Heightened Def Con from 1.69705e-08 to 1.69705e-08
Heightened Def Con from 1.69705e-08 to 1.69705e-08
Heightened Def Con from 1.69705e-08 ++to 1.69705e-08
Heightened Def Con from 1.69705e-08 to 1.69705e-08
Heightened Def Con from 1.69705e-08 to 1.69705e-08
Heightened Def Con from 1.69705e-08 to 1.69705e-08
Heightened Def Con from 1.69705e-08 +to 1.69705e-08
Heightened Def Con from 1.69705e-08 to 1.69705e-08
Heightened Def Con from 1.69705e-08 ++to 1.69705e-08
Heightened Def Con from 1.69705e-08 to 1.69705e-08
Heightened Def Con from 1.69705e-08 +to 1.69705e-08
Heightened Def Con from 1.69705e-08 to 1.69705e-08
Heightened Def Con from 1.69705e-08 to 1.69705e-08
Heightened Def Con from 1.69705e-08 +++to 1.69705e-08
Heightened Def Con from 1.69705e-08 ++to 1.69705e-08
Heightened Def Con from 1.69705e-08 to 1.69705e-08
Heightened Def Con from 1.69705e-08 +to 1.69705e-08
Heightened Def Con from 1.69705e-08 to 1.69705e-08
Heightened Def Con from 1.69705e-08 +to 1.69705e-08
Heightened Def Con from 1.69705e-08 to 1.69705e-08
Heightened Def Con from 1.69705e-08 ++to 1.69705e-08
Heightened Def Con from 1.69705e-08 +to 1.69705e-08
Heightened Def Con from 1.69705e-08 to 1.69705e-08
Heightened Def Con from 1.69705e-08 to 1.69705e-08
Heightened Def Con from 1.69705e-08 +to 1.69705e-08
Heightened Def Con from 1.69705e-08 ++to 1.69705e-08
Heightened Def Con from 1.69705e-08 ++to 1.69705e-08
Heightened Def Con from 1.69705e-08 +to 1.69705e-08
Heightened Def Con from 1.69705e-08 to 1.69705e-08
Heightened Def Con from 1.69705e-08 +to 1.69705e-08
Heightened Def Con from 1.69705e-08 to 1.69705e-08
Heightened Def Con from 1.69705e-08 to 1.69705e-08
Heightened Def Con from 1.69705e-08 to 1.69705e-08
Heightened Def Con from 1.69705e-08 to 1.69705e-08
Heightened Def Con from 1.69705e-08 to 1.69705e-08
Heightened Def Con from 1.69705e-08 to 1.69705e-08
Heightened Def Con from 1.69705e-08 +to 1.69705e-08
Heightened Def Con from 1.69705e-08 to 1.69705e-08
Heightened Def Con from 1.69705e-08 +to 1.69705e-08
Heightened Def Con from 1.69705e-08 to 1.69705e-08
Heightened Def Con from 1.69705e-08 to 1.69705e-08
Heightened Def Con from 1.69705e-08 +++to 1.69705e-08
Heightened Def Con from 1.69705e-08 to 1.69705e-08
Heightened Def Con from 1.69705e-08 ++++to 1.69705e-08
Heightened Def Con from 1.69705e-08 to 1.69705e-08
Heightened Def Con from 1.69705e-08 ++to 1.69705e-08
Heightened Def Con from 1.69705e-08 +to 1.69705e-08
Heightened Def Con from 1.69705e-08 +to 1.69705e-08
Heightened Def Con from 1.69705e-08 +to 1.69705e-08
Heightened Def Con from 1.69705e-08 to 1.69705e-08
Heightened Def Con from 1.69705e-08 +++to 1.69705e-08
Heightened Def Con from 1.69705e-08 +to 1.69705e-08
Heightened Def Con from 1.69705e-08 +++to 1.69705e-08
Heightened Def Con from 1.69705e-08 ++++to 1.69705e-08
Heightened Def Con from 1.69705e-08 ++to 1.69705e-08
Heightened Def Con from 1.69705e-08 to 1.69705e-08
Heightened Def Con from 1.69705e-08 ++to 1.69705e-08
Heightened Def Con from 1.69705e-08 to 1.69705e-08
Heightened Def Con from 1.69705e-08 +to 1.69705e-08
Heightened Def Con from 1.69705e-08 +to 1.69705e-08
Heightened Def Con from 1.69705e-08 to 1.69705e-08
Heightened Def Con from 1.69705e-08 ++++to 1.69705e-08
Heightened Def Con from 1.69705e-08 to 1.69705e-08
Heightened Def Con from 1.69705e-08 +to 1.69705e-08
Heightened Def Con from 1.69705e-08 ++to 1.69705e-08
Heightened Def Con from 1.69705e-08 to 1.69705e-08
Heightened Def Con from 1.69705e-08 to 1.69705e-08
Heightened Def Con from 1.69705e-08 to 1.69705e-08
Heightened Def Con from 1.69705e-08 +to 1.69705e-08
Heightened Def Con from 1.69705e-08 to 1.69705e-08
Heightened Def Con from 1.69705e-08 to 1.69705e-08
Heightened Def Con from 1.69705e-08 to 1.69705e-08
Heightened Def Con from 1.69705e-08 +++to 1.69705e-08
Heightened Def Con from 1.69705e-08 +to 1.69705e-08
Heightened Def Con from 1.69705e-08 to 1.69705e-08
Heightened Def Con from 1.69705e-08 +to 1.69705e-08
Heightened Def Con from 1.69705e-08 +to 1.69705e-08
Heightened Def Con from 1.69705e-08 to 1.69705e-08
Heightened Def Con from 1.69705e-08 ++++to 1.69705e-08
Heightened Def Con from 1.69705e-08 +to 1.69705e-08
Heightened Def Con from 1.69705e-08 to 1.69705e-08
Heightened Def Con from 1.69705e-08 to 1.69705e-08
Heightened Def Con from 1.69705e-08 +to 1.69705e-08
Heightened Def Con from 1.69705e-08 to 1.69705e-08
Heightened Def Con from 1.69705e-08 to 1.69705e-08
Heightened Def Con from 1.69705e-08 to 1.69705e-08
Heightened Def Con from 1.69705e-08 +to 1.69705e-08
Heightened Def Con from 1.69705e-08 +to 1.69705e-08
Heightened Def Con from 1.69705e-08 ++to 1.69705e-08
Heightened Def Con from 1.69705e-08 to 1.69705e-08
Heightened Def Con from 1.69705e-08 to 1.69705e-08
Heightened Def Con from 1.69705e-08 to 1.69705e-08
Heightened Def Con from 1.69705e-08 to 1.69705e-08
Heightened Def Con from 1.69705e-08 +to 1.69705e-08
Heightened Def Con from 1.69705e-08 ++to 1.69705e-08
Heightened Def Con from 1.69705e-08 ++to 1.69705e-08
Heightened Def Con from 1.69705e-08 +to 1.69705e-08
Heightened Def Con from 1.69705e-08 to 1.69705e-08
Heightened Def Con from 1.69705e-08 to 1.69705e-08
Heightened Def Con from 1.69705e-08 +to 1.69705e-08
Heightened Def Con from 1.69705e-08 +to 1.69705e-08
Heightened Def Con from 1.69705e-08 to 1.69705e-08
Heightened Def Con from 1.69705e-08 ++++++to 1.69705e-08
Heightened Def Con from 1.69705e-08 to 1.69705e-08
Heightened Def Con from 1.69705e-08 to 1.69705e-08
Heightened Def Con from 1.69705e-08 +to 1.69705e-08
Heightened Def Con from 1.69705e-08 +to 1.69705e-08
Heightened Def Con from 1.69705e-08 +to 1.69705e-08
Heightened Def Con from 1.69705e-08 +++to 1.69705e-08
Heightened Def Con from 1.69705e-08 +to 1.69705e-08
Heightened Def Con from 1.69705e-08 to 1.69705e-08
Heightened Def Con from 1.69705e-08 to 1.69705e-08
Heightened Def Con from 1.69705e-08 to 1.69705e-08
Heightened Def Con from 1.69705e-08 +to 1.69705e-08
Heightened Def Con from 1.69705e-08 to 1.69705e-08
Heightened Def Con from 1.69705e-08 +++to 1.69705e-08
Heightened Def Con from 1.69705e-08 to 1.69705e-08
Heightened Def Con from 1.69705e-08 to 1.69705e-08
Heightened Def Con from 1.69705e-08 to 1.69705e-08
Heightened Def Con from 1.69705e-08 to 1.69705e-08
Heightened Def Con from 1.69705e-08 to 1.69705e-08
Heightened Def Con from 1.69705e-08 to 1.69705e-08
Heightened Def Con from 1.69705e-08 to 1.69705e-08
Heightened Def Con from 1.69705e-08 to 1.69705e-08
Heightened Def Con from 1.69705e-08 ++++to 1.69705e-08
Heightened Def Con from 1.69705e-08 +++to 1.69705e-08
Heightened Def Con from 1.69705e-08 to 1.69705e-08
Heightened Def Con from 1.69705e-08 ++to 1.69705e-08
Heightened Def Con from 1.69705e-08 +to 1.69705e-08
Heightened Def Con from 1.69705e-08 +to 1.69705e-08
Heightened Def Con from 1.69705e-08 +to 1.69705e-08
Heightened Def Con from 1.69705e-08 +to 1.69705e-08
Heightened Def Con from 1.69705e-08 to 1.69705e-08
Heightened Def Con from 1.69705e-08 to 1.69705e-08
Heightened Def Con from 1.69705e-08 to 1.69705e-08
Heightened Def Con from 1.69705e-08 to 1.69705e-08
Heightened Def Con from 1.69705e-08 +to 1.69705e-08
Heightened Def Con from 1.69705e-08 to 1.69705e-08
Heightened Def Con from 1.69705e-08 to 1.69705e-08
Heightened Def Con from 1.69705e-08 ++to 1.69705e-08
Heightened Def Con from 1.69705e-08 +++to 1.69705e-08
Heightened Def Con from 1.69705e-08 +++to 1.69705e-08
Heightened Def Con from 1.69705e-08 ++to 1.69705e-08
Heightened Def Con from 1.69705e-08 to 1.69705e-08
Heightened Def Con from 1.69705e-08 +to 1.69705e-08
Heightened Def Con from 1.69705e-08 to 1.69705e-08
Heightened Def Con from 1.69705e-08 to 1.69705e-08
Heightened Def Con from 1.69705e-08 ++to 1.69705e-08
Heightened Def Con from 1.69705e-08 to 1.69705e-08
Heightened Def Con from 1.69705e-08 +to 1.69705e-08
Heightened Def Con from 1.69705e-08 to 1.69705e-08
Heightened Def Con from 1.69705e-08 ++to 1.69705e-08
Heightened Def Con from 1.69705e-08 +to 1.69705e-08
Heightened Def Con from 1.69705e-08 +to 1.69705e-08
Heightened Def Con from 1.69705e-08 to 1.69705e-08
Heightened Def Con from 1.69705e-08 to 1.69705e-08
Heightened Def Con from 1.69705e-08 +to 1.69705e-08
Heightened Def Con from 1.69705e-08 to 1.69705e-08
Heightened Def Con from 1.69705e-08 +to 1.69705e-08
Heightened Def Con from 1.69705e-08 +to 1.69705e-08
Heightened Def Con from 1.69705e-08 +to 1.69705e-08
Heightened Def Con from 1.69705e-08 +++to 1.69705e-08
Heightened Def Con from 1.69705e-08 ++to 1.69705e-08
Heightened Def Con from 1.69705e-08 to 1.69705e-08
Heightened Def Con from 1.69705e-08 +to 1.69705e-08
Heightened Def Con from 1.69705e-08 to 1.69705e-08
Heightened Def Con from 1.69705e-08 to 1.69705e-08
Heightened Def Con from 1.69705e-08 to 1.69705e-08
Heightened Def Con from 1.69705e-08 +to 1.69705e-08
Heightened Def Con from 1.69705e-08 to 1.69705e-08
Heightened Def Con from 1.69705e-08 to 1.69705e-08
Heightened Def Con from 1.69705e-08 to 1.69705e-08
Heightened Def Con from 1.69705e-08 to 1.69705e-08
Heightened Def Con from 1.69705e-08 +to 1.69705e-08
Heightened Def Con from 1.69705e-08 to 1.69705e-08
Heightened Def Con from 1.69705e-08 +to 1.69705e-08
Heightened Def Con from 1.69705e-08 ++++to 1.69705e-08
Heightened Def Con from 1.69705e-08 +to 1.69705e-08
Heightened Def Con from 1.69705e-08 to 1.69705e-08
Heightened Def Con from 1.69705e-08 +to 1.69705e-08
Heightened Def Con from 1.69705e-08 to 1.69705e-08
Heightened Def Con from 1.69705e-08 to 1.69705e-08
Heightened Def Con from 1.69705e-08 +to 1.69705e-08
Heightened Def Con from 1.69705e-08 to 1.69705e-08
Heightened Def Con from 1.69705e-08 +to 1.69705e-08
Heightened Def Con from 1.69705e-08 to 1.69705e-08
Heightened Def Con from 1.69705e-08 to 1.69705e-08
Heightened Def Con from 1.69705e-08 ++++to 1.69705e-08
Heightened Def Con from 1.69705e-08 ++to 1.69705e-08
Heightened Def Con from 1.69705e-08 to 1.69705e-08
Heightened Def Con from 1.69705e-08 +to 1.69705e-08
Heightened Def Con from 1.69705e-08 to 1.69705e-08
Heightened Def Con from 1.69705e-08 to 1.69705e-08
Heightened Def Con from 1.69705e-08 to 1.69705e-08
Heightened Def Con from 1.69705e-08 ++++++to 1.69706e-08
Heightened Def Con from 1.69706e-08 to 1.69706e-08
Heightened Def Con from 1.69706e-08 to 1.69706e-08
Heightened Def Con from 1.69706e-08 +to 1.69706e-08
Heightened Def Con from 1.69706e-08 +to 1.69706e-08
Heightened Def Con from 1.69706e-08 to 1.69706e-08
Heightened Def Con from 1.69706e-08 to 1.69706e-08
Heightened Def Con from 1.69706e-08 ++to 1.69706e-08
Heightened Def Con from 1.69706e-08 ++to 1.69706e-08
Heightened Def Con from 1.69706e-08 to 1.69706e-08
Heightened Def Con from 1.69706e-08 to 1.69706e-08
Heightened Def Con from 1.69706e-08 to 1.69706e-08
Heightened Def Con from 1.69706e-08 to 1.69706e-08
Heightened Def Con from 1.69706e-08 +to 1.69706e-08
Heightened Def Con from 1.69706e-08 to 1.69706e-08
Heightened Def Con from 1.69706e-08 +to 1.69706e-08
Heightened Def Con from 1.69706e-08 +to 1.69706e-08
Heightened Def Con from 1.69706e-08 to 1.69706e-08
Heightened Def Con from 1.69706e-08 to 1.69706e-08
Heightened Def Con from 1.69706e-08 to 1.69706e-08
Heightened Def Con from 1.69706e-08 to 1.69706e-08
Heightened Def Con from 1.69706e-08 +to 1.69706e-08
Heightened Def Con from 1.69706e-08 +to 1.69706e-08
Heightened Def Con from 1.69706e-08 +to 1.69706e-08
Heightened Def Con from 1.69706e-08 ++++to 1.69706e-08
Heightened Def Con from 1.69706e-08 +to 1.69706e-08
Heightened Def Con from 1.69706e-08 to 1.69706e-08
Heightened Def Con from 1.69706e-08 to 1.69706e-08
Heightened Def Con from 1.69706e-08 +to 1.69706e-08
Heightened Def Con from 1.69706e-08 to 1.69706e-08
Heightened Def Con from 1.69706e-08 to 1.69706e-08
Heightened Def Con from 1.69706e-08 to 1.69706e-08
Heightened Def Con from 1.69706e-08 +++to 1.69706e-08
Heightened Def Con from 1.69706e-08 to 1.69706e-08
Heightened Def Con from 1.69706e-08 +++to 1.69706e-08
Heightened Def Con from 1.69706e-08 +to 1.69706e-08
Heightened Def Con from 1.69706e-08 to 1.69706e-08
Heightened Def Con from 1.69706e-08 +to 1.69706e-08
Heightened Def Con from 1.69706e-08 to 1.69706e-08
Heightened Def Con from 1.69706e-08 +++to 1.69706e-08
Heightened Def Con from 1.69706e-08 +to 1.69706e-08
Heightened Def Con from 1.69706e-08 +to 1.69706e-08
Heightened Def Con from 1.69706e-08 to 1.69706e-08
Heightened Def Con from 1.69706e-08 ++to 1.69706e-08
Heightened Def Con from 1.69706e-08 +to 1.69706e-08
Heightened Def Con from 1.69706e-08 to 1.69706e-08
Heightened Def Con from 1.69706e-08 +to 1.69706e-08
Heightened Def Con from 1.69706e-08 to 1.69706e-08
Heightened Def Con from 1.69706e-08 to 1.69706e-08
Heightened Def Con from 1.69706e-08 to 1.69706e-08
Heightened Def Con from 1.69706e-08 +to 1.69706e-08
Heightened Def Con from 1.69706e-08 to 1.69706e-08
Heightened Def Con from 1.69706e-08 to 1.69706e-08
Heightened Def Con from 1.69706e-08 to 1.69706e-08
Heightened Def Con from 1.69706e-08 +to 1.69706e-08
Heightened Def Con from 1.69706e-08 to 1.69706e-08
Heightened Def Con from 1.69706e-08 to 1.69706e-08
Heightened Def Con from 1.69706e-08 +to 1.69706e-08
Heightened Def Con from 1.69706e-08 +to 1.69706e-08
Heightened Def Con from 1.69706e-08 +++to 1.69706e-08
Heightened Def Con from 1.69706e-08 to 1.69706e-08
Heightened Def Con from 1.69706e-08 to 1.69706e-08
Heightened Def Con from 1.69706e-08 +to 1.69706e-08
Heightened Def Con from 1.69706e-08 to 1.69706e-08
Heightened Def Con from 1.69706e-08 ++to 1.69706e-08
Heightened Def Con from 1.69706e-08 to 1.69706e-08
Heightened Def Con from 1.69706e-08 +to 1.69706e-08
Heightened Def Con from 1.69706e-08 ++to 1.69706e-08
Heightened Def Con from 1.69706e-08 to 1.69706e-08
Heightened Def Con from 1.69706e-08 to 1.69706e-08
Heightened Def Con from 1.69706e-08 +to 1.69706e-08
Heightened Def Con from 1.69706e-08 +to 1.69706e-08
Heightened Def Con from 1.69706e-08 to 1.69706e-08
Heightened Def Con from 1.69706e-08 to 1.69706e-08
Heightened Def Con from 1.69706e-08 ++to 1.69706e-08
Heightened Def Con from 1.69706e-08 +to 1.69706e-08
Heightened Def Con from 1.69706e-08 to 1.69706e-08
Heightened Def Con from 1.69706e-08 ++to 1.69706e-08
Heightened Def Con from 1.69706e-08 to 1.69706e-08
Heightened Def Con from 1.69706e-08 to 1.69706e-08
Heightened Def Con from 1.69706e-08 to 1.69706e-08
Heightened Def Con from 1.69706e-08 to 1.69706e-08
Heightened Def Con from 1.69706e-08 +to 1.69706e-08
Heightened Def Con from 1.69706e-08 to 1.69706e-08
Heightened Def Con from 1.69706e-08 to 1.69706e-08
Heightened Def Con from 1.69706e-08 to 1.69706e-08
Heightened Def Con from 1.69706e-08 to 1.69706e-08
Heightened Def Con from 1.69706e-08 to 1.69706e-08
Heightened Def Con from 1.69706e-08 to 1.69706e-08
Heightened Def Con from 1.69706e-08 to 1.69706e-08
Heightened Def Con from 1.69706e-08 to 1.69706e-08
Heightened Def Con from 1.69706e-08 to 1.69706e-08
Heightened Def Con from 1.69706e-08 to 1.69706e-08
Heightened Def Con from 1.69706e-08 +++to 1.69706e-08
Heightened Def Con from 1.69706e-08 to 1.69706e-08
Heightened Def Con from 1.69706e-08 +to 1.69706e-08
Heightened Def Con from 1.69706e-08 +to 1.69706e-08
Heightened Def Con from 1.69706e-08 ++to 1.69706e-08
Heightened Def Con from 1.69706e-08 to 1.69706e-08
Heightened Def Con from 1.69706e-08 to 1.69706e-08
Heightened Def Con from 1.69706e-08 +to 1.69706e-08
Heightened Def Con from 1.69706e-08 to 1.69706e-08
Heightened Def Con from 1.69706e-08 to 1.69706e-08
Heightened Def Con from 1.69706e-08 to 1.69706e-08
Heightened Def Con from 1.69706e-08 to 1.69706e-08
Heightened Def Con from 1.69706e-08 ++to 1.69706e-08
Heightened Def Con from 1.69706e-08 to 1.69706e-08
Heightened Def Con from 1.69706e-08 ++to 1.69706e-08
Heightened Def Con from 1.69706e-08 +to 1.69706e-08
Heightened Def Con from 1.69706e-08 to 1.69706e-08
Heightened Def Con from 1.69706e-08 to 1.69706e-08
Heightened Def Con from 1.69706e-08 ++to 1.69706e-08
Heightened Def Con from 1.69706e-08 to 1.69706e-08
Heightened Def Con from 1.69706e-08 to 1.69706e-08
Heightened Def Con from 1.69706e-08 to 1.69706e-08
Heightened Def Con from 1.69706e-08 +to 1.69706e-08
Heightened Def Con from 1.69706e-08 to 1.69706e-08
Heightened Def Con from 1.69706e-08 to 1.69706e-08
Heightened Def Con from 1.69706e-08 to 1.69706e-08
Heightened Def Con from 1.69706e-08 to 1.69706e-08
Heightened Def Con from 1.69706e-08 to 1.69706e-08
Heightened Def Con from 1.69706e-08 to 1.69706e-08
Heightened Def Con from 1.69706e-08 ++to 1.69706e-08
Heightened Def Con from 1.69706e-08 to 1.69706e-08
Heightened Def Con from 1.69706e-08 +to 1.69706e-08
Heightened Def Con from 1.69706e-08 to 1.69706e-08
Heightened Def Con from 1.69706e-08 to 1.69706e-08
Heightened Def Con from 1.69706e-08 ++to 1.69706e-08
Heightened Def Con from 1.69706e-08 ++to 1.69706e-08
Heightened Def Con from 1.69706e-08 +to 1.69706e-08
Heightened Def Con from 1.69706e-08 to 1.69706e-08
Heightened Def Con from 1.69706e-08 ++++++to 1.69706e-08
Heightened Def Con from 1.69706e-08 ++to 1.69706e-08
Heightened Def Con from 1.69706e-08 to 1.69706e-08
Heightened Def Con from 1.69706e-08 ++++to 1.69706e-08
Heightened Def Con from 1.69706e-08 ++++to 1.69706e-08
Heightened Def Con from 1.69706e-08 to 1.69706e-08
Heightened Def Con from 1.69706e-08 to 1.69706e-08
Heightened Def Con from 1.69706e-08 to 1.69706e-08
Heightened Def Con from 1.69706e-08 +to 1.69706e-08
Heightened Def Con from 1.69706e-08 +to 1.69706e-08
Heightened Def Con from 1.69706e-08 to 1.69706e-08
Heightened Def Con from 1.69706e-08 +to 1.69706e-08
Heightened Def Con from 1.69706e-08 ++++++to 1.69706e-08
Heightened Def Con from 1.69706e-08 ++++++to 1.69706e-08
Heightened Def Con from 1.69706e-08 +to 1.69706e-08
Heightened Def Con from 1.69706e-08 to 1.69706e-08
Heightened Def Con from 1.69706e-08 to 1.69706e-08
Heightened Def Con from 1.69706e-08 to 1.69706e-08
Heightened Def Con from 1.69706e-08 +to 1.69706e-08
Heightened Def Con from 1.69706e-08 to 1.69706e-08
Heightened Def Con from 1.69706e-08 +to 1.69706e-08
Heightened Def Con from 1.69706e-08 to 1.69706e-08
Heightened Def Con from 1.69706e-08 ++to 1.69706e-08
Heightened Def Con from 1.69706e-08 to 1.69706e-08
Heightened Def Con from 1.69706e-08 to 1.69706e-08
Heightened Def Con from 1.69706e-08 +to 1.69706e-08
Heightened Def Con from 1.69706e-08 to 1.69706e-08
Heightened Def Con from 1.69706e-08 to 1.69706e-08
Heightened Def Con from 1.69706e-08 to 1.69706e-08
Heightened Def Con from 1.69706e-08 to 1.69706e-08
Heightened Def Con from 1.69706e-08 to 1.69706e-08
Heightened Def Con from 1.69706e-08 to 1.69706e-08
Heightened Def Con from 1.69706e-08 to 1.69706e-08
Heightened Def Con from 1.69706e-08 to 1.69706e-08
Heightened Def Con from 1.69706e-08 to 1.69706e-08
Heightened Def Con from 1.69706e-08 to 1.69706e-08
Heightened Def Con from 1.69706e-08 to 1.69706e-08
Heightened Def Con from 1.69706e-08 ++to 1.69706e-08
Heightened Def Con from 1.69706e-08 ++to 1.69706e-08
Heightened Def Con from 1.69706e-08 ++to 1.69706e-08
Heightened Def Con from 1.69706e-08 to 1.69706e-08
Heightened Def Con from 1.69706e-08 to 1.69706e-08
Heightened Def Con from 1.69706e-08 to 1.69706e-08
Heightened Def Con from 1.69706e-08 to 1.69706e-08
Heightened Def Con from 1.69706e-08 to 1.69706e-08
Heightened Def Con from 1.69706e-08 ++++to 1.69706e-08
Heightened Def Con from 1.69706e-08 +to 1.69706e-08
Heightened Def Con from 1.69706e-08 +to 1.69706e-08
Heightened Def Con from 1.69706e-08 to 1.69706e-08
Heightened Def Con from 1.69706e-08 to 1.69706e-08
Heightened Def Con from 1.69706e-08 to 1.69706e-08
Heightened Def Con from 1.69706e-08 to 1.69706e-08
Heightened Def Con from 1.69706e-08 to 1.69706e-08
Heightened Def Con from 1.69706e-08 to 1.69706e-08
Heightened Def Con from 1.69706e-08 +to 1.69706e-08
Heightened Def Con from 1.69706e-08 to 1.69706e-08
Heightened Def Con from 1.69706e-08 to 1.69706e-08
Heightened Def Con from 1.69706e-08 ++to 1.69706e-08
Heightened Def Con from 1.69706e-08 to 1.69706e-08
Heightened Def Con from 1.69706e-08 to 1.69706e-08
Heightened Def Con from 1.69706e-08 +to 1.69706e-08
Heightened Def Con from 1.69706e-08 to 1.69706e-08
Heightened Def Con from 1.69706e-08 to 1.69706e-08
Heightened Def Con from 1.69706e-08 to 1.69706e-08
Heightened Def Con from 1.69706e-08 to 1.69706e-08
Heightened Def Con from 1.69706e-08 to 1.69706e-08
Heightened Def Con from 1.69706e-08 +to 1.69706e-08
Heightened Def Con from 1.69706e-08 +to 1.69706e-08
Heightened Def Con from 1.69706e-08 to 1.69706e-08
Heightened Def Con from 1.69706e-08 ++to 1.69706e-08
Heightened Def Con from 1.69706e-08 to 1.69706e-08
Heightened Def Con from 1.69706e-08 +to 1.69706e-08
Heightened Def Con from 1.69706e-08 to 1.69706e-08
Heightened Def Con from 1.69706e-08 to 1.69706e-08
Heightened Def Con from 1.69706e-08 to 1.69706e-08
Heightened Def Con from 1.69706e-08 to 1.69706e-08
Heightened Def Con from 1.69706e-08 +to 1.69706e-08
Heightened Def Con from 1.69706e-08 to 1.69706e-08
Heightened Def Con from 1.69706e-08 to 1.69706e-08
Heightened Def Con from 1.69706e-08 to 1.69706e-08
Heightened Def Con from 1.69706e-08 to 1.69706e-08
Heightened Def Con from 1.69706e-08 to 1.69706e-08
Heightened Def Con from 1.69706e-08 to 1.69706e-08
Heightened Def Con from 1.69706e-08 +to 1.69706e-08
Heightened Def Con from 1.69706e-08 to 1.69706e-08
Heightened Def Con from 1.69706e-08 to 1.69706e-08
Heightened Def Con from 1.69706e-08 to 1.69706e-08
Heightened Def Con from 1.69706e-08 to 1.69706e-08
Heightened Def Con from 1.69706e-08 to 1.69706e-08
Heightened Def Con from 1.69706e-08 to 1.69706e-08
Heightened Def Con from 1.69706e-08 to 1.69706e-08
Heightened Def Con from 1.69706e-08 to 1.69706e-08
Heightened Def Con from 1.69706e-08 +to 1.69706e-08
Heightened Def Con from 1.69706e-08 ++to 1.69706e-08
Heightened Def Con from 1.69706e-08 to 1.69706e-08
Heightened Def Con from 1.69706e-08 +to 1.69706e-08
Heightened Def Con from 1.69706e-08 +to 1.69706e-08
Heightened Def Con from 1.69706e-08 to 1.69706e-08
Heightened Def Con from 1.69706e-08 to 1.69706e-08
Heightened Def Con from 1.69706e-08 +to 1.69706e-08
Heightened Def Con from 1.69706e-08 to 1.69706e-08
Heightened Def Con from 1.69706e-08 +to 1.69706e-08
Heightened Def Con from 1.69706e-08 ++to 1.69706e-08
Heightened Def Con from 1.69706e-08 ++to 1.69706e-08
Heightened Def Con from 1.69706e-08 to 1.69706e-08
Heightened Def Con from 1.69706e-08 +to 1.69706e-08
Heightened Def Con from 1.69706e-08 +to 1.69706e-08
Heightened Def Con from 1.69706e-08 to 1.69706e-08
Heightened Def Con from 1.69706e-08 +to 1.69706e-08
Heightened Def Con from 1.69706e-08 ++to 1.69706e-08
Heightened Def Con from 1.69706e-08 +to 1.69706e-08
Heightened Def Con from 1.69706e-08 to 1.69706e-08
Heightened Def Con from 1.69706e-08 to 1.69706e-08
Heightened Def Con from 1.69706e-08 +to 1.69706e-08
Heightened Def Con from 1.69706e-08 +to 1.69706e-08
Heightened Def Con from 1.69706e-08 to 1.69706e-08
Heightened Def Con from 1.69706e-08 to 1.69706e-08
Heightened Def Con from 1.69706e-08 to 1.69706e-08
Heightened Def Con from 1.69706e-08 ++to 1.69706e-08
Heightened Def Con from 1.69706e-08 to 1.69706e-08
Heightened Def Con from 1.69706e-08 ++to 1.69706e-08
Heightened Def Con from 1.69706e-08 to 1.69706e-08
Heightened Def Con from 1.69706e-08 to 1.69706e-08
Heightened Def Con from 1.69706e-08 to 1.69706e-08
Heightened Def Con from 1.69706e-08 to 1.69706e-08
Heightened Def Con from 1.69706e-08 to 1.69706e-08
Heightened Def Con from 1.69706e-08 ++to 1.69706e-08
Heightened Def Con from 1.69706e-08 to 1.69706e-08
Heightened Def Con from 1.69706e-08 to 1.69706e-08
Heightened Def Con from 1.69706e-08 to 1.69706e-08
Heightened Def Con from 1.69706e-08 to 1.69706e-08
Heightened Def Con from 1.69706e-08 +++to 1.69706e-08
Heightened Def Con from 1.69706e-08 to 1.69706e-08
Heightened Def Con from 1.69706e-08 to 1.69706e-08
Heightened Def Con from 1.69706e-08 to 1.69706e-08
Heightened Def Con from 1.69706e-08 to 1.69706e-08
Heightened Def Con from 1.69706e-08 +to 1.69706e-08
Heightened Def Con from 1.69706e-08 to 1.69706e-08
Heightened Def Con from 1.69706e-08 to 1.69706e-08
Heightened Def Con from 1.69706e-08 to 1.69706e-08
Heightened Def Con from 1.69706e-08 to 1.69706e-08
Heightened Def Con from 1.69706e-08 +to 1.69706e-08
Heightened Def Con from 1.69706e-08 +to 1.69706e-08
Heightened Def Con from 1.69706e-08 to 1.69706e-08
Heightened Def Con from 1.69706e-08 +to 1.69706e-08
Heightened Def Con from 1.69706e-08 to 1.69706e-08
Heightened Def Con from 1.69706e-08 to 1.69706e-08
Heightened Def Con from 1.69706e-08 to 1.69706e-08
Heightened Def Con from 1.69706e-08 ++++to 1.69706e-08
Heightened Def Con from 1.69706e-08 to 1.69706e-08
Heightened Def Con from 1.69706e-08 +to 1.69706e-08
Heightened Def Con from 1.69706e-08 ++to 1.69706e-08
Heightened Def Con from 1.69706e-08 ++to 1.69706e-08
Heightened Def Con from 1.69706e-08 to 1.69706e-08
Heightened Def Con from 1.69706e-08 to 1.69706e-08
Heightened Def Con from 1.69706e-08 to 1.69706e-08
Heightened Def Con from 1.69706e-08 to 1.69706e-08
Heightened Def Con from 1.69706e-08 to 1.69706e-08
Heightened Def Con from 1.69706e-08 to 1.69706e-08
Heightened Def Con from 1.69706e-08 to 1.69706e-08
Heightened Def Con from 1.69706e-08 to 1.69706e-08
Heightened Def Con from 1.69706e-08 to 1.69706e-08
Heightened Def Con from 1.69706e-08 to 1.69706e-08
Heightened Def Con from 1.69706e-08 to 1.69706e-08
Heightened Def Con from 1.69706e-08 +to 1.69706e-08
Heightened Def Con from 1.69706e-08 to 1.69706e-08
Heightened Def Con from 1.69706e-08 to 1.69706e-08
Heightened Def Con from 1.69706e-08 to 1.69706e-08
Heightened Def Con from 1.69706e-08 ++to 1.69706e-08
Heightened Def Con from 1.69706e-08 to 1.69706e-08
Heightened Def Con from 1.69706e-08 to 1.69706e-08
Heightened Def Con from 1.69706e-08 ++to 1.69706e-08
Heightened Def Con from 1.69706e-08 +to 1.69706e-08
Heightened Def Con from 1.69706e-08 to 1.69706e-08
Heightened Def Con from 1.69706e-08 to 1.69706e-08
Heightened Def Con from 1.69706e-08 to 1.69706e-08
Heightened Def Con from 1.69706e-08 +to 1.69706e-08
Heightened Def Con from 1.69706e-08 to 1.69706e-08
Heightened Def Con from 1.69706e-08 +to 1.69706e-08
Heightened Def Con from 1.69706e-08 +++to 1.69706e-08
Heightened Def Con from 1.69706e-08 ++to 1.69706e-08
Heightened Def Con from 1.69706e-08 +to 1.69706e-08
Heightened Def Con from 1.69706e-08 to 1.69706e-08
Heightened Def Con from 1.69706e-08 to 1.69706e-08
Heightened Def Con from 1.69706e-08 +to 1.69706e-08
Heightened Def Con from 1.69706e-08 +to 1.69706e-08
Heightened Def Con from 1.69706e-08 +to 1.69706e-08
Heightened Def Con from 1.69706e-08 to 1.69706e-08
Heightened Def Con from 1.69706e-08 to 1.69706e-08
Heightened Def Con from 1.69706e-08 to 1.69706e-08
Heightened Def Con from 1.69706e-08 to 1.69706e-08
Heightened Def Con from 1.69706e-08 to 1.69706e-08
Heightened Def Con from 1.69706e-08 to 1.69706e-08
Heightened Def Con from 1.69706e-08 to 1.69706e-08
Heightened Def Con from 1.69706e-08 to 1.69706e-08
Heightened Def Con from 1.69706e-08 to 1.69706e-08
Heightened Def Con from 1.69706e-08 to 1.69706e-08
Heightened Def Con from 1.69706e-08 ++to 1.69706e-08
Heightened Def Con from 1.69706e-08 to 1.69706e-08
Heightened Def Con from 1.69706e-08 to 1.69706e-08
Heightened Def Con from 1.69706e-08 to 1.69706e-08
Heightened Def Con from 1.69706e-08 to 1.69706e-08
Heightened Def Con from 1.69706e-08 to 1.69706e-08
Heightened Def Con from 1.69706e-08 to 1.69706e-08
Heightened Def Con from 1.69706e-08 +to 1.69706e-08
Heightened Def Con from 1.69706e-08 +to 1.69706e-08
Heightened Def Con from 1.69706e-08 to 1.69706e-08
Heightened Def Con from 1.69706e-08 ++to 1.69706e-08
Heightened Def Con from 1.69706e-08 to 1.69706e-08
Heightened Def Con from 1.69706e-08 to 1.69706e-08
Heightened Def Con from 1.69706e-08 +to 1.69706e-08
Heightened Def Con from 1.69706e-08 ++to 1.69706e-08
Heightened Def Con from 1.69706e-08 to 1.69706e-08
Heightened Def Con from 1.69706e-08 ++to 1.69706e-08
Heightened Def Con from 1.69706e-08 to 1.69706e-08
Heightened Def Con from 1.69706e-08 to 1.69706e-08
Heightened Def Con from 1.69706e-08 to 1.69706e-08
Heightened Def Con from 1.69706e-08 +to 1.69706e-08
Heightened Def Con from 1.69706e-08 to 1.69706e-08
Heightened Def Con from 1.69706e-08 to 1.69706e-08
Heightened Def Con from 1.69706e-08 +to 1.69706e-08
Heightened Def Con from 1.69706e-08 +to 1.69706e-08
Heightened Def Con from 1.69706e-08 +to 1.69706e-08
Heightened Def Con from 1.69706e-08 +to 1.69706e-08
Heightened Def Con from 1.69706e-08 ++to 1.69706e-08
Heightened Def Con from 1.69706e-08 to 1.69706e-08
Heightened Def Con from 1.69706e-08 to 1.69706e-08
Heightened Def Con from 1.69706e-08 to 1.69706e-08
Heightened Def Con from 1.69706e-08 to 1.69706e-08
Heightened Def Con from 1.69706e-08 to 1.69706e-08
Heightened Def Con from 1.69706e-08 +++to 1.69706e-08
Heightened Def Con from 1.69706e-08 to 1.69706e-08
Heightened Def Con from 1.69706e-08 +to 1.69706e-08
Heightened Def Con from 1.69706e-08 ++to 1.69706e-08
Heightened Def Con from 1.69706e-08 +to 1.69706e-08
Heightened Def Con from 1.69706e-08 to 1.69706e-08
Heightened Def Con from 1.69706e-08 to 1.69706e-08
Heightened Def Con from 1.69706e-08 +to 1.69706e-08
Heightened Def Con from 1.69706e-08 +to 1.69706e-08
Heightened Def Con from 1.69706e-08 to 1.69706e-08
Heightened Def Con from 1.69706e-08 to 1.69706e-08
Heightened Def Con from 1.69706e-08 to 1.69706e-08
Heightened Def Con from 1.69706e-08 to 1.69706e-08
Heightened Def Con from 1.69706e-08 to 1.69706e-08
Heightened Def Con from 1.69706e-08 to 1.69706e-08
Heightened Def Con from 1.69706e-08 ++to 1.69706e-08
Heightened Def Con from 1.69706e-08 +to 1.69706e-08
Heightened Def Con from 1.69706e-08 to 1.69706e-08
Heightened Def Con from 1.69706e-08 +to 1.69706e-08
Heightened Def Con from 1.69706e-08 to 1.69706e-08
Heightened Def Con from 1.69706e-08 to 1.69706e-08
Heightened Def Con from 1.69706e-08 +to 1.69706e-08
Heightened Def Con from 1.69706e-08 to 1.69706e-08
Heightened Def Con from 1.69706e-08 +to 1.69706e-08
Heightened Def Con from 1.69706e-08 to 1.69706e-08
Heightened Def Con from 1.69706e-08 to 1.69706e-08
Heightened Def Con from 1.69706e-08 to 1.69706e-08
Heightened Def Con from 1.69706e-08 ++to 1.69706e-08
Heightened Def Con from 1.69706e-08 to 1.69706e-08
Heightened Def Con from 1.69706e-08 to 1.69706e-08
Heightened Def Con from 1.69706e-08 to 1.69706e-08
Heightened Def Con from 1.69706e-08 to 1.69706e-08
Heightened Def Con from 1.69706e-08 to 1.69706e-08
Heightened Def Con from 1.69706e-08 to 1.69706e-08
Heightened Def Con from 1.69706e-08 to 1.69706e-08
Heightened Def Con from 1.69706e-08 ++to 1.69706e-08
Heightened Def Con from 1.69706e-08 to 1.69706e-08
Heightened Def Con from 1.69706e-08 to 1.69706e-08
Heightened Def Con from 1.69706e-08 to 1.69706e-08
Heightened Def Con from 1.69706e-08 to 1.69706e-08
Heightened Def Con from 1.69706e-08 to 1.69706e-08
Heightened Def Con from 1.69706e-08 ++++to 1.69706e-08
Heightened Def Con from 1.69706e-08 +to 1.69706e-08
Heightened Def Con from 1.69706e-08 +to 1.69706e-08
Heightened Def Con from 1.69706e-08 to 1.69706e-08
Heightened Def Con from 1.69706e-08 to 1.69706e-08
Heightened Def Con from 1.69706e-08 +to 1.69706e-08
Heightened Def Con from 1.69706e-08 +to 1.69706e-08
Heightened Def Con from 1.69706e-08 to 1.69706e-08
Heightened Def Con from 1.69706e-08 +to 1.69706e-08
Heightened Def Con from 1.69706e-08 to 1.69706e-08
Heightened Def Con from 1.69706e-08 to 1.69706e-08
Heightened Def Con from 1.69706e-08 to 1.69706e-08
Heightened Def Con from 1.69706e-08 +to 1.69706e-08
Heightened Def Con from 1.69706e-08 to 1.69706e-08
Heightened Def Con from 1.69706e-08 +to 1.69706e-08
Heightened Def Con from 1.69706e-08 to 1.69706e-08
Heightened Def Con from 1.69706e-08 to 1.69706e-08
Heightened Def Con from 1.69706e-08 +to 1.69706e-08
Heightened Def Con from 1.69706e-08 to 1.69706e-08
Heightened Def Con from 1.69706e-08 to 1.69706e-08
Heightened Def Con from 1.69706e-08 +to 1.69706e-08
Heightened Def Con from 1.69706e-08 +++++to 1.69706e-08
Heightened Def Con from 1.69706e-08 to 1.69706e-08
Heightened Def Con from 1.69706e-08 to 1.69706e-08
Heightened Def Con from 1.69706e-08 to 1.69706e-08
Heightened Def Con from 1.69706e-08 +to 1.69706e-08
Heightened Def Con from 1.69706e-08 +to 1.69706e-08
Heightened Def Con from 1.69706e-08 to 1.69706e-08
Heightened Def Con from 1.69706e-08 to 1.69706e-08
Heightened Def Con from 1.69706e-08 to 1.69706e-08
Heightened Def Con from 1.69706e-08 +++to 1.69706e-08
Heightened Def Con from 1.69706e-08 to 1.69706e-08
Heightened Def Con from 1.69706e-08 to 1.69706e-08
Heightened Def Con from 1.69706e-08 to 1.69706e-08
Heightened Def Con from 1.69706e-08 to 1.69706e-08
Heightened Def Con from 1.69706e-08 to 1.69706e-08
Heightened Def Con from 1.69706e-08 to 1.69706e-08
Heightened Def Con from 1.69706e-08 to 1.69706e-08
Heightened Def Con from 1.69706e-08 +to 1.69706e-08
Heightened Def Con from 1.69706e-08 to 1.69706e-08
Heightened Def Con from 1.69706e-08 +to 1.69706e-08
Heightened Def Con from 1.69706e-08 +to 1.69706e-08
Heightened Def Con from 1.69706e-08 ++to 1.69706e-08
Heightened Def Con from 1.69706e-08 to 1.69706e-08
Heightened Def Con from 1.69706e-08 ++to 1.69706e-08
Heightened Def Con from 1.69706e-08 +to 1.69706e-08
Heightened Def Con from 1.69706e-08 to 1.69706e-08
Heightened Def Con from 1.69706e-08 to 1.69706e-08
Heightened Def Con from 1.69706e-08 to 1.69706e-08
Heightened Def Con from 1.69706e-08 +to 1.69706e-08
Heightened Def Con from 1.69706e-08 to 1.69706e-08
Heightened Def Con from 1.69706e-08 to 1.69706e-08
Heightened Def Con from 1.69706e-08 to 1.69706e-08
Heightened Def Con from 1.69706e-08 to 1.69706e-08
Heightened Def Con from 1.69706e-08 +to 1.69706e-08
Heightened Def Con from 1.69706e-08 +to 1.69706e-08
Heightened Def Con from 1.69706e-08 +to 1.69706e-08
Heightened Def Con from 1.69706e-08 to 1.69706e-08
Heightened Def Con from 1.69706e-08 to 1.69706e-08
Heightened Def Con from 1.69706e-08 to 1.69706e-08
Heightened Def Con from 1.69706e-08 +++to 1.69706e-08
Heightened Def Con from 1.69706e-08 to 1.69706e-08
Heightened Def Con from 1.69706e-08 to 1.69706e-08
Heightened Def Con from 1.69706e-08 ++to 1.69706e-08
Heightened Def Con from 1.69706e-08 +to 1.69706e-08
Heightened Def Con from 1.69706e-08 +to 1.69706e-08
Heightened Def Con from 1.69706e-08 to 1.69706e-08
Heightened Def Con from 1.69706e-08 +to 1.69706e-08
Heightened Def Con from 1.69706e-08 to 1.69706e-08
Heightened Def Con from 1.69706e-08 to 1.69706e-08
Heightened Def Con from 1.69706e-08 to 1.69706e-08
Heightened Def Con from 1.69706e-08 to 1.69706e-08
Heightened Def Con from 1.69706e-08 to 1.69706e-08
Heightened Def Con from 1.69706e-08 +to 1.69706e-08
Heightened Def Con from 1.69706e-08 to 1.69706e-08
Heightened Def Con from 1.69706e-08 to 1.69706e-08
Heightened Def Con from 1.69706e-08 to 1.69706e-08
Heightened Def Con from 1.69706e-08 to 1.69706e-08
Heightened Def Con from 1.69706e-08 +to 1.69706e-08
Heightened Def Con from 1.69706e-08 to 1.69706e-08
Heightened Def Con from 1.69706e-08 to 1.69706e-08
Heightened Def Con from 1.69706e-08 to 1.69706e-08
Heightened Def Con from 1.69706e-08 +to 1.69706e-08
Heightened Def Con from 1.69706e-08 +to 1.69706e-08
Heightened Def Con from 1.69706e-08 +to 1.69706e-08
Heightened Def Con from 1.69706e-08 to 1.69706e-08
Heightened Def Con from 1.69706e-08 to 1.69706e-08
Heightened Def Con from 1.69706e-08 to 1.69706e-08
Heightened Def Con from 1.69706e-08 +to 1.69706e-08
Heightened Def Con from 1.69706e-08 +to 1.69706e-08
Heightened Def Con from 1.69706e-08 +to 1.69706e-08
Heightened Def Con from 1.69706e-08 to 1.69706e-08
Heightened Def Con from 1.69706e-08 +to 1.69706e-08
Heightened Def Con from 1.69706e-08 ++++to 1.69706e-08
Heightened Def Con from 1.69706e-08 to 1.69706e-08
Heightened Def Con from 1.69706e-08 to 1.69706e-08
Heightened Def Con from 1.69706e-08 to 1.69706e-08
Heightened Def Con from 1.69706e-08 +to 1.69706e-08
Heightened Def Con from 1.69706e-08 to 1.69706e-08
Heightened Def Con from 1.69706e-08 to 1.69706e-08
Heightened Def Con from 1.69706e-08 ++++to 1.69706e-08
Heightened Def Con from 1.69706e-08 to 1.69706e-08
Heightened Def Con from 1.69706e-08 ++to 1.69706e-08
Heightened Def Con from 1.69706e-08 +to 1.69706e-08
Heightened Def Con from 1.69706e-08 to 1.69706e-08
Heightened Def Con from 1.69706e-08 to 1.69706e-08
Heightened Def Con from 1.69706e-08 to 1.69706e-08
Heightened Def Con from 1.69706e-08 +to 1.69706e-08
Heightened Def Con from 1.69706e-08 to 1.69706e-08
Heightened Def Con from 1.69706e-08 to 1.69706e-08
Heightened Def Con from 1.69706e-08 to 1.69706e-08
Heightened Def Con from 1.69706e-08 ++to 1.69706e-08
Heightened Def Con from 1.69706e-08 +to 1.69706e-08
Heightened Def Con from 1.69706e-08 to 1.69706e-08
Heightened Def Con from 1.69706e-08 +++++to 1.69706e-08
Heightened Def Con from 1.69706e-08 to 1.69706e-08
Heightened Def Con from 1.69706e-08 to 1.69706e-08
Heightened Def Con from 1.69706e-08 +to 1.69706e-08
Heightened Def Con from 1.69706e-08 +to 1.69706e-08
Heightened Def Con from 1.69706e-08 to 1.69706e-08
Heightened Def Con from 1.69706e-08 +to 1.69706e-08
Heightened Def Con from 1.69706e-08 to 1.69706e-08
Heightened Def Con from 1.69706e-08 to 1.69706e-08
Heightened Def Con from 1.69706e-08 +to 1.69706e-08
Heightened Def Con from 1.69706e-08 to 1.69706e-08
Heightened Def Con from 1.69706e-08 +to 1.69706e-08
Heightened Def Con from 1.69706e-08 to 1.69706e-08
Heightened Def Con from 1.69706e-08 to 1.69706e-08
Heightened Def Con from 1.69706e-08 ++to 1.69706e-08
Heightened Def Con from 1.69706e-08 +to 1.69706e-08
Heightened Def Con from 1.69706e-08 to 1.69706e-08
Heightened Def Con from 1.69706e-08 ++++++to 1.69706e-08
Heightened Def Con from 1.69706e-08 to 1.69706e-08
Heightened Def Con from 1.69706e-08 +to 1.69706e-08
Heightened Def Con from 1.69706e-08 ++to 1.69706e-08
Heightened Def Con from 1.69706e-08 to 1.69706e-08
Heightened Def Con from 1.69706e-08 +to 1.69706e-08
Heightened Def Con from 1.69706e-08 to 1.69706e-08
Heightened Def Con from 1.69706e-08 +to 1.69706e-08
Heightened Def Con from 1.69706e-08 to 1.69706e-08
Heightened Def Con from 1.69706e-08 to 1.69706e-08
Heightened Def Con from 1.69706e-08 to 1.69706e-08
Heightened Def Con from 1.69706e-08 ++to 1.69706e-08
Heightened Def Con from 1.69706e-08 to 1.69706e-08
Heightened Def Con from 1.69706e-08 to 1.69706e-08
Heightened Def Con from 1.69706e-08 ++++to 1.69706e-08
Heightened Def Con from 1.69706e-08 +to 1.69706e-08
Heightened Def Con from 1.69706e-08 to 1.69706e-08
Heightened Def Con from 1.69706e-08 to 1.69706e-08
Heightened Def Con from 1.69706e-08 +to 1.69706e-08
Heightened Def Con from 1.69706e-08 to 1.69706e-08
Heightened Def Con from 1.69706e-08 +to 1.69706e-08
Heightened Def Con from 1.69706e-08 ++to 1.69706e-08
Heightened Def Con from 1.69706e-08 +to 1.69706e-08
Heightened Def Con from 1.69706e-08 +to 1.69706e-08
Heightened Def Con from 1.69706e-08 +to 1.69706e-08
Heightened Def Con from 1.69706e-08 to 1.69706e-08
Heightened Def Con from 1.69706e-08 to 1.69706e-08
Heightened Def Con from 1.69706e-08 to 1.69706e-08
Heightened Def Con from 1.69706e-08 to 1.69706e-08
Heightened Def Con from 1.69706e-08 +to 1.69706e-08
Heightened Def Con from 1.69706e-08 to 1.69706e-08
Heightened Def Con from 1.69706e-08 +to 1.69706e-08
Heightened Def Con from 1.69706e-08 to 1.69706e-08
Heightened Def Con from 1.69706e-08 to 1.69706e-08
Heightened Def Con from 1.69706e-08 to 1.69706e-08
Heightened Def Con from 1.69706e-08 to 1.69706e-08
Heightened Def Con from 1.69706e-08 to 1.69706e-08
Heightened Def Con from 1.69706e-08 +to 1.69706e-08
Heightened Def Con from 1.69706e-08 to 1.69706e-08
Heightened Def Con from 1.69706e-08 +to 1.69706e-08
Heightened Def Con from 1.69706e-08 +to 1.69706e-08
Heightened Def Con from 1.69706e-08 +to 1.69706e-08
Heightened Def Con from 1.69706e-08 +to 1.69706e-08
Heightened Def Con from 1.69706e-08 +++++to 1.69706e-08
Heightened Def Con from 1.69706e-08 +to 1.69706e-08
Heightened Def Con from 1.69706e-08 +to 1.69706e-08
Heightened Def Con from 1.69706e-08 to 1.69706e-08
Heightened Def Con from 1.69706e-08 to 1.69706e-08
Heightened Def Con from 1.69706e-08 to 1.69706e-08
Heightened Def Con from 1.69706e-08 to 1.69706e-08
Heightened Def Con from 1.69706e-08 +to 1.69706e-08
Heightened Def Con from 1.69706e-08 +to 1.69706e-08
Heightened Def Con from 1.69706e-08 +to 1.69706e-08
Heightened Def Con from 1.69706e-08 ++to 1.69706e-08
Heightened Def Con from 1.69706e-08 to 1.69706e-08
Heightened Def Con from 1.69706e-08 +to 1.69706e-08
Heightened Def Con from 1.69706e-08 to 1.69706e-08
Heightened Def Con from 1.69706e-08 ++++to 1.69706e-08
Heightened Def Con from 1.69706e-08 to 1.69706e-08
Heightened Def Con from 1.69706e-08 +to 1.69706e-08
Heightened Def Con from 1.69706e-08 to 1.69706e-08
Heightened Def Con from 1.69706e-08 ++to 1.69706e-08
Heightened Def Con from 1.69706e-08 to 1.69706e-08
Heightened Def Con from 1.69706e-08 to 1.69706e-08
Heightened Def Con from 1.69706e-08 to 1.69706e-08
Heightened Def Con from 1.69706e-08 +to 1.69706e-08
Heightened Def Con from 1.69706e-08 +to 1.69706e-08
Heightened Def Con from 1.69706e-08 +++to 1.69706e-08
Heightened Def Con from 1.69706e-08 ++to 1.69706e-08
Heightened Def Con from 1.69706e-08 to 1.69706e-08
Heightened Def Con from 1.69706e-08 +to 1.69706e-08
Heightened Def Con from 1.69706e-08 to 1.69706e-08
Heightened Def Con from 1.69706e-08 to 1.69706e-08
Heightened Def Con from 1.69706e-08 ++to 1.69706e-08
Heightened Def Con from 1.69706e-08 to 1.69706e-08
Heightened Def Con from 1.69706e-08 +to 1.69706e-08
Heightened Def Con from 1.69706e-08 to 1.69706e-08
Heightened Def Con from 1.69706e-08 +++to 1.69706e-08
Heightened Def Con from 1.69706e-08 to 1.69706e-08
Heightened Def Con from 1.69706e-08 to 1.69706e-08
Heightened Def Con from 1.69706e-08 to 1.69706e-08
Heightened Def Con from 1.69706e-08 +to 1.69706e-08
Heightened Def Con from 1.69706e-08 to 1.69706e-08
Heightened Def Con from 1.69706e-08 to 1.69706e-08
Heightened Def Con from 1.69706e-08 to 1.69706e-08
Heightened Def Con from 1.69706e-08 to 1.69706e-08
Heightened Def Con from 1.69706e-08 +++++++to 1.69706e-08
Heightened Def Con from 1.69706e-08 to 1.69706e-08
Heightened Def Con from 1.69706e-08 ++to 1.69706e-08
Heightened Def Con from 1.69706e-08 to 1.69706e-08
Heightened Def Con from 1.69706e-08 to 1.69706e-08
Heightened Def Con from 1.69706e-08 to 1.69706e-08
Heightened Def Con from 1.69706e-08 to 1.69706e-08
Heightened Def Con from 1.69706e-08 to 1.69706e-08
Heightened Def Con from 1.69706e-08 ++to 1.69706e-08
Heightened Def Con from 1.69706e-08 to 1.69706e-08
Heightened Def Con from 1.69706e-08 ++to 1.69706e-08
Heightened Def Con from 1.69706e-08 to 1.69706e-08
Heightened Def Con from 1.69706e-08 +to 1.69706e-08
Heightened Def Con from 1.69706e-08 ++to 1.69706e-08
Heightened Def Con from 1.69706e-08 +to 1.69706e-08
Heightened Def Con from 1.69706e-08 to 1.69706e-08
Heightened Def Con from 1.69706e-08 to 1.69706e-08
Heightened Def Con from 1.69706e-08 to 1.69706e-08
Heightened Def Con from 1.69706e-08 to 1.69706e-08
Heightened Def Con from 1.69706e-08 ++to 1.69706e-08
Heightened Def Con from 1.69706e-08 to 1.69706e-08
Heightened Def Con from 1.69706e-08 +to 1.69706e-08
Heightened Def Con from 1.69706e-08 +to 1.69706e-08
Heightened Def Con from 1.69706e-08 to 1.69706e-08
Heightened Def Con from 1.69706e-08 +++to 1.69706e-08
Heightened Def Con from 1.69706e-08 +to 1.69706e-08
Heightened Def Con from 1.69706e-08 +to 1.69706e-08
Heightened Def Con from 1.69706e-08 to 1.69706e-08
Heightened Def Con from 1.69706e-08 to 1.69706e-08
Heightened Def Con from 1.69706e-08 to 1.69706e-08
Heightened Def Con from 1.69706e-08 to 1.69706e-08
Heightened Def Con from 1.69706e-08 to 1.69706e-08
Heightened Def Con from 1.69706e-08 +++++to 1.69706e-08
Heightened Def Con from 1.69706e-08 to 1.69706e-08
Heightened Def Con from 1.69706e-08 +to 1.69706e-08
Heightened Def Con from 1.69706e-08 to 1.69706e-08
Heightened Def Con from 1.69706e-08 ++++to 1.69706e-08
Heightened Def Con from 1.69706e-08 to 1.69706e-08
Heightened Def Con from 1.69706e-08 to 1.69706e-08
Heightened Def Con from 1.69706e-08 to 1.69706e-08
Heightened Def Con from 1.69706e-08 +to 1.69706e-08
Heightened Def Con from 1.69706e-08 +++++to 1.69706e-08
Heightened Def Con from 1.69706e-08 +to 1.69706e-08
Heightened Def Con from 1.69706e-08 to 1.69706e-08
Heightened Def Con from 1.69706e-08 ++to 1.69706e-08
Heightened Def Con from 1.69706e-08 to 1.69706e-08
Heightened Def Con from 1.69706e-08 +++to 1.69706e-08
Heightened Def Con from 1.69706e-08 to 1.69706e-08
Heightened Def Con from 1.69706e-08 to 1.69706e-08
Heightened Def Con from 1.69706e-08 to 1.69706e-08
Heightened Def Con from 1.69706e-08 to 1.69706e-08
Heightened Def Con from 1.69706e-08 to 1.69706e-08
Heightened Def Con from 1.69706e-08 +to 1.69706e-08
Heightened Def Con from 1.69706e-08 to 1.69706e-08
Heightened Def Con from 1.69706e-08 +to 1.69706e-08
Heightened Def Con from 1.69706e-08 to 1.69706e-08
Heightened Def Con from 1.69706e-08 to 1.69706e-08
Heightened Def Con from 1.69706e-08 to 1.69706e-08
Heightened Def Con from 1.69706e-08 to 1.69706e-08
Heightened Def Con from 1.69706e-08 to 1.69706e-08
Heightened Def Con from 1.69706e-08 to 1.69706e-08
Heightened Def Con from 1.69706e-08 +to 1.69706e-08
Heightened Def Con from 1.69706e-08 to 1.69706e-08
Heightened Def Con from 1.69706e-08 to 1.69706e-08
Heightened Def Con from 1.69706e-08 ++to 1.69706e-08
Heightened Def Con from 1.69706e-08 to 1.69706e-08
Heightened Def Con from 1.69706e-08 +++to 1.69706e-08
Heightened Def Con from 1.69706e-08 +++to 1.69706e-08
Heightened Def Con from 1.69706e-08 +++to 1.69706e-08
Heightened Def Con from 1.69706e-08 +to 1.69706e-08
Heightened Def Con from 1.69706e-08 ++to 1.69706e-08
Heightened Def Con from 1.69706e-08 to 1.69706e-08
Heightened Def Con from 1.69706e-08 to 1.69706e-08
Heightened Def Con from 1.69706e-08 +to 1.69706e-08
Heightened Def Con from 1.69706e-08 +to 1.69706e-08
Heightened Def Con from 1.69706e-08 to 1.69706e-08
Heightened Def Con from 1.69706e-08 ++++to 1.69706e-08
Heightened Def Con from 1.69706e-08 +to 1.69706e-08
Heightened Def Con from 1.69706e-08 to 1.69706e-08
Heightened Def Con from 1.69706e-08 to 1.69706e-08
Heightened Def Con from 1.69706e-08 to 1.69706e-08
Heightened Def Con from 1.69706e-08 +++to 1.69706e-08
Heightened Def Con from 1.69706e-08 +to 1.69706e-08
Heightened Def Con from 1.69706e-08 +to 1.69706e-08
Heightened Def Con from 1.69706e-08 to 1.69706e-08
Heightened Def Con from 1.69706e-08 to 1.69706e-08
Heightened Def Con from 1.69706e-08 to 1.69706e-08
Heightened Def Con from 1.69706e-08 to 1.69706e-08
Heightened Def Con from 1.69706e-08 to 1.69706e-08
Heightened Def Con from 1.69706e-08 to 1.69706e-08
Heightened Def Con from 1.69706e-08 to 1.69706e-08
Heightened Def Con from 1.69706e-08 ++to 1.69706e-08
Heightened Def Con from 1.69706e-08 to 1.69706e-08
Heightened Def Con from 1.69706e-08 +to 1.69706e-08
Heightened Def Con from 1.69706e-08 to 1.69706e-08
Heightened Def Con from 1.69706e-08 +to 1.69706e-08
Heightened Def Con from 1.69706e-08 ++to 1.69706e-08
Heightened Def Con from 1.69706e-08 +to 1.69706e-08
Heightened Def Con from 1.69706e-08 +++to 1.69706e-08
Heightened Def Con from 1.69706e-08 to 1.69706e-08
Heightened Def Con from 1.69706e-08 to 1.69706e-08
Heightened Def Con from 1.69706e-08 to 1.69706e-08
Heightened Def Con from 1.69706e-08 +to 1.69706e-08
Heightened Def Con from 1.69706e-08 ++to 1.69706e-08
Heightened Def Con from 1.69706e-08 to 1.69706e-08
Heightened Def Con from 1.69706e-08 +to 1.69706e-08
Heightened Def Con from 1.69706e-08 to 1.69706e-08
Heightened Def Con from 1.69706e-08 to 1.69706e-08
Heightened Def Con from 1.69706e-08 ++to 1.69706e-08
Heightened Def Con from 1.69706e-08 +to 1.69706e-08
Heightened Def Con from 1.69706e-08 ++to 1.69706e-08
Heightened Def Con from 1.69706e-08 to 1.69706e-08
Heightened Def Con from 1.69706e-08 to 1.69706e-08
Heightened Def Con from 1.69706e-08 to 1.69706e-08
Heightened Def Con from 1.69706e-08 to 1.69706e-08
Heightened Def Con from 1.69706e-08 +to 1.69706e-08
Heightened Def Con from 1.69706e-08 to 1.69706e-08
Heightened Def Con from 1.69706e-08 +++++to 1.69706e-08
Heightened Def Con from 1.69706e-08 to 1.69706e-08
Heightened Def Con from 1.69706e-08 ++to 1.69706e-08
Heightened Def Con from 1.69706e-08 +to 1.69706e-08
Heightened Def Con from 1.69706e-08 +++to 1.69706e-08
Heightened Def Con from 1.69706e-08 ++to 1.69706e-08
Heightened Def Con from 1.69706e-08 +to 1.69706e-08
Heightened Def Con from 1.69706e-08 +++to 1.69706e-08
Heightened Def Con from 1.69706e-08 to 1.69706e-08
Heightened Def Con from 1.69706e-08 to 1.69706e-08
Heightened Def Con from 1.69706e-08 ++++to 1.69706e-08
Heightened Def Con from 1.69706e-08 to 1.69706e-08
Heightened Def Con from 1.69706e-08 to 1.69706e-08
Heightened Def Con from 1.69706e-08 +to 1.69706e-08
Heightened Def Con from 1.69706e-08 to 1.69706e-08
Heightened Def Con from 1.69706e-08 to 1.69706e-08
Heightened Def Con from 1.69706e-08 ++to 1.69706e-08
Heightened Def Con from 1.69706e-08 +to 1.69706e-08
Heightened Def Con from 1.69706e-08 to 1.69706e-08
Heightened Def Con from 1.69706e-08 to 1.69706e-08
Heightened Def Con from 1.69706e-08 to 1.69706e-08
Heightened Def Con from 1.69706e-08 to 1.69706e-08
Heightened Def Con from 1.69706e-08 to 1.69706e-08
Heightened Def Con from 1.69706e-08 ++to 1.69706e-08
Heightened Def Con from 1.69706e-08 to 1.69706e-08
Heightened Def Con from 1.69706e-08 to 1.69706e-08
Heightened Def Con from 1.69706e-08 ++to 1.69706e-08
Heightened Def Con from 1.69706e-08 to 1.69706e-08
Heightened Def Con from 1.69706e-08 to 1.69706e-08
Heightened Def Con from 1.69706e-08 to 1.69706e-08
Heightened Def Con from 1.69706e-08 +to 1.69706e-08
Heightened Def Con from 1.69706e-08 +to 1.69706e-08
Heightened Def Con from 1.69706e-08 to 1.69706e-08
Heightened Def Con from 1.69706e-08 +to 1.69706e-08
Heightened Def Con from 1.69706e-08 to 1.69706e-08
Heightened Def Con from 1.69706e-08 to 1.69706e-08
Heightened Def Con from 1.69706e-08 ++to 1.69706e-08
Heightened Def Con from 1.69706e-08 to 1.69706e-08
Heightened Def Con from 1.69706e-08 to 1.69706e-08
Heightened Def Con from 1.69706e-08 +to 1.69706e-08
Heightened Def Con from 1.69706e-08 ++to 1.69706e-08
Heightened Def Con from 1.69706e-08 ++to 1.69706e-08
Heightened Def Con from 1.69706e-08 to 1.69706e-08
Heightened Def Con from 1.69706e-08 to 1.69706e-08
Heightened Def Con from 1.69706e-08 +++to 1.69706e-08
Heightened Def Con from 1.69706e-08 +to 1.69706e-08
Heightened Def Con from 1.69706e-08 to 1.69706e-08
Heightened Def Con from 1.69706e-08 +to 1.69706e-08
Heightened Def Con from 1.69706e-08 to 1.69706e-08
Heightened Def Con from 1.69706e-08 to 1.69706e-08
Heightened Def Con from 1.69706e-08 to 1.69706e-08
Heightened Def Con from 1.69706e-08 ++to 1.69706e-08
Heightened Def Con from 1.69706e-08 +to 1.69706e-08
Heightened Def Con from 1.69706e-08 to 1.69706e-08
Heightened Def Con from 1.69706e-08 to 1.69706e-08
Heightened Def Con from 1.69706e-08 to 1.69706e-08
Heightened Def Con from 1.69706e-08 +to 1.69706e-08
Heightened Def Con from 1.69706e-08 to 1.69706e-08
Heightened Def Con from 1.69706e-08 ++to 1.69706e-08
Heightened Def Con from 1.69706e-08 to 1.69706e-08
Heightened Def Con from 1.69706e-08 +to 1.69706e-08
Heightened Def Con from 1.69706e-08 +to 1.69706e-08
Heightened Def Con from 1.69706e-08 to 1.69706e-08
Heightened Def Con from 1.69706e-08 +to 1.69706e-08
[...]
Heightened Def Con from 2.33191e-08 +++++++++++++++++++to 2.33191e-08
Heightened Def Con from 2.33191e-08 +++++++++++++++++++to 2.33191e-08
Heightened Def Con from 2.33191e-08 +++++++++++++++++++to 2.33191e-08
Heightened Def Con from 2.33191e-08 +++++++++++++++++++to 2.33191e-08
Heightened Def Con from 2.33191e-08 +++++++++++++++++++to 2.33191e-08
Heightened Def Con from 2.33191e-08 +++++++++++++++++++to 2.33191e-08
Heightened Def Con from 2.33191e-08 +++++++++++++++++++to 2.33191e-08
Heightened Def Con from 2.33191e-08 +++++++++++++++++++to 2.33191e-08
Heightened Def Con from 2.33191e-08 +++++++++++++++++++to 2.33191e-08
Heightened Def Con from 2.33191e-08 +++++++++++++++++++to 2.33191e-08
Heightened Def Con from 2.33191e-08 +++++++++++++++++++to 2.33191e-08
Heightened Def Con from 2.33191e-08 +++++++++++++++++++to 2.33191e-08
Heightened Def Con from 2.33191e-08 +++++++++++++++++++to 2.33192e-08
Heightened Def Con from 2.33192e-08 +++++++++++++++++++to 2.33192e-08
Heightened Def Con from 2.33192e-08 +++++++++++++++++++to 2.33192e-08
Heightened Def Con from 2.33192e-08 +++++++++++++++++++to 2.33192e-08
Heightened Def Con from 2.33192e-08 +++++++++++++++++++to 2.33192e-08
Heightened Def Con from 2.33192e-08 +++++++++++++++++++to 2.33192e-08
Heightened Def Con from 2.33192e-08 +++++++++++++++++++to 2.33192e-08
Heightened Def Con from 2.33192e-08 +++++++++++++++++++to 2.33192e-08
Heightened Def Con from 2.33192e-08 +++++++++++++++++++to 2.33192e-08
Heightened Def Con from 2.33192e-08 +++++++++++++++++++to 2.33192e-08
Heightened Def Con from 2.33192e-08 +++++++++++++++++++to 2.33192e-08
Heightened Def Con from 2.33192e-08 +++++++++++++++++++to 2.33192e-08
Heightened Def Con from 2.33192e-08 +++++++++++++++++++to 2.33192e-08
Heightened Def Con from 2.33192e-08 +++++++++++++++++++to 2.33192e-08
Heightened Def Con from 2.33192e-08 +++++++++++++++++++to 2.33192e-08
Heightened Def Con from 2.33192e-08 +++++++++++++++++++to 2.33192e-08
Heightened Def Con from 2.33192e-08 +++++++++++++++++++to 2.33192e-08
Heightened Def Con from 2.33192e-08 +++++++++++++++++++to 2.33192e-08
Heightened Def Con from 2.33192e-08 +++++++++++++++++++to 2.33192e-08
Heightened Def Con from 2.33192e-08 +++++++++++++++++++to 2.33192e-08
Heightened Def Con from 2.33192e-08 +++++++++++++++++++to 2.33192e-08
Heightened Def Con from 2.33192e-08 +++++++++++++++++++to 2.33192e-08
Heightened Def Con from 2.33192e-08 +++++++++++++++++++to 2.33192e-08
Heightened Def Con from 2.33192e-08 +++++++++++++++++++to 2.33192e-08
Heightened Def Con from 2.33192e-08 +++++++++++++++++++to 2.33192e-08
Heightened Def Con from 2.33192e-08 +++++++++++++++++++to 2.33192e-08
Heightened Def Con from 2.33192e-08 +++++++++++++++++++to 2.33193e-08
Heightened Def Con from 2.33193e-08 +++++++++++++++++++to 2.33193e-08
Heightened Def Con from 2.33193e-08 +++++++++++++++++++to 2.33193e-08
Heightened Def Con from 2.33193e-08 +++++++++++++++++++to 2.33193e-08
Heightened Def Con from 2.33193e-08 +++++++++++++++++++to 2.33193e-08
Heightened Def Con from 2.33193e-08 +++++++++++++++++++to 2.33193e-08
Heightened Def Con from 2.33193e-08 +++++++++++++++++++to 2.33193e-08
Heightened Def Con from 2.33193e-08 +++++++++++++++++++to 2.33193e-08
Heightened Def Con from 2.33193e-08 +++++++++++++++++++to 2.33193e-08
Heightened Def Con from 2.33193e-08 +++++++++++++++++++to 2.33193e-08
Heightened Def Con from 2.33193e-08 +++++++++++++++++++to 2.33193e-08
Heightened Def Con from 2.33193e-08 +++++++++++++++++++to 2.33193e-08
Heightened Def Con from 2.33193e-08 +++++++++++++++++++to 2.33193e-08
Heightened Def Con from 2.33193e-08 +++++++++++++++++++to 2.33193e-08
Heightened Def Con from 2.33193e-08 +++++++++++++++++++to 2.33193e-08
Heightened Def Con from 2.33193e-08 +++++++++++++++++++to 2.33193e-08
Heightened Def Con from 2.33193e-08 +++++++++++++++++++to 2.33193e-08
Heightened Def Con from 2.33193e-08 +++++++++++++++++++to 2.33193e-08
Heightened Def Con from 2.33193e-08 +++++++++++++++++++to 2.33193e-08
Heightened Def Con from 2.33193e-08 +++++++++++++++++++to 2.33193e-08
Heightened Def Con from 2.33193e-08 +++++++++++++++++++to 2.33193e-08
Heightened Def Con from 2.33193e-08 +++++++++++++++++++to 2.33193e-08
Heightened Def Con from 2.33193e-08 +++++++++++++++++++to 2.33193e-08
Heightened Def Con from 2.33193e-08 +++++++++++++++++++to 2.33193e-08
Heightened Def Con from 2.33193e-08 +++++++++++++++++++to 2.33193e-08
Heightened Def Con from 2.33193e-08 +++++++++++++++++++to 2.33193e-08
Heightened Def Con from 2.33193e-08 +++++++++++++++++++to 2.33194e-08
Heightened Def Con from 2.33194e-08 +++++++++++++++++++to 2.33194e-08
Heightened Def Con from 2.33194e-08 +++++++++++++++++++to 2.33194e-08
Heightened Def Con from 2.33194e-08 +++++++++++++++++++to 2.33194e-08
Heightened Def Con from 2.33194e-08 +++++++++++++++++++to 2.33194e-08
Heightened Def Con from 2.33194e-08 +++++++++++++++++++to 2.33194e-08
Heightened Def Con from 2.33194e-08 +++++++++++++++++++to 2.33194e-08
Heightened Def Con from 2.33194e-08 +++++++++++++++++++to 2.33194e-08
Heightened Def Con from 2.33194e-08 +++++++++++++++++++to 2.33194e-08
Heightened Def Con from 2.33194e-08 +++++++++++++++++++to 2.33194e-08
Heightened Def Con from 2.33194e-08 +++++++++++++++++++to 2.33194e-08
Heightened Def Con from 2.33194e-08 +++++++++++++++++++to 2.33194e-08
Heightened Def Con from 2.33194e-08 +++++++++++++++++++to 2.33194e-08
Heightened Def Con from 2.33194e-08 +++++++++++++++++++to 2.33194e-08
Heightened Def Con from 2.33194e-08 +++++++++++++++++++to 2.33194e-08
Heightened Def Con from 2.33194e-08 +++++++++++++++++++to 2.33194e-08
Heightened Def Con from 2.33194e-08 +++++++++++++++++++to 2.33194e-08
Heightened Def Con from 2.33194e-08 +++++++++++++++++++to 2.33194e-08
Heightened Def Con from 2.33194e-08 +++++++++++++++++++to 2.33194e-08
Heightened Def Con from 2.33194e-08 +++++++++++++++++++to 2.33194e-08
Heightened Def Con from 2.33194e-08 +++++++++++++++++++to 2.33194e-08
Heightened Def Con from 2.33194e-08 +++++++++++++++++++to 2.33194e-08
Heightened Def Con from 2.33194e-08 +++++++++++++++++++to 2.33194e-08
Heightened Def Con from 2.33194e-08 +++++++++++++++++++to 2.33194e-08
Heightened Def Con from 2.33194e-08 +++++++++++++++++++to 2.33194e-08
Heightened Def Con from 2.33194e-08 +++++++++++++++++++to 2.33194e-08
Heightened Def Con from 2.33194e-08 +++++++++++++++++++to 2.33195e-08
Heightened Def Con from 2.33195e-08 +++++++++++++++++++to 2.33195e-08
Heightened Def Con from 2.33195e-08 +++++++++++++++++++to 2.33195e-08
Heightened Def Con from 2.33195e-08 +++++++++++++++++++to 2.33195e-08
Heightened Def Con from 2.33195e-08 +++++++++++++++++++to 2.33195e-08
Heightened Def Con from 2.33195e-08 +++++++++++++++++++to 2.33195e-08
Heightened Def Con from 2.33195e-08 +++++++++++++++++++to 2.33195e-08
Heightened Def Con from 2.33195e-08 +++++++++++++++++++to 2.33195e-08
Heightened Def Con from 2.33195e-08 +++++++++++++++++++to 2.33195e-08
Heightened Def Con from 2.33195e-08 +++++++++++++++++++to 2.33195e-08
Heightened Def Con from 2.33195e-08 +++++++++++++++++++to 2.33195e-08
Heightened Def Con from 2.33195e-08 +++++++++++++++++++to 2.33195e-08
Heightened Def Con from 2.33195e-08 +++++++++++++++++++to 2.33195e-08
Heightened Def Con from 2.33195e-08 +++++++++++++++++++to 2.33195e-08
Heightened Def Con from 2.33195e-08 +++++++++++++++++++to 2.33195e-08
Heightened Def Con from 2.33195e-08 +++++++++++++++++++to 2.33195e-08
Heightened Def Con from 2.33195e-08 +++++++++++++++++++to 2.33195e-08
Heightened Def Con from 2.33195e-08 +++++++++++++++++++to 2.33195e-08
Heightened Def Con from 2.33195e-08 +++++++++++++++++++to 2.33195e-08
Heightened Def Con from 2.33195e-08 +++++++++++++++++++to 2.33195e-08
Heightened Def Con from 2.33195e-08 +++++++++++++++++++to 2.33195e-08
Heightened Def Con from 2.33195e-08 +++++++++++++++++++to 2.33195e-08
Heightened Def Con from 2.33195e-08 +++++++++++++++++++to 2.33195e-08
Heightened Def Con from 2.33195e-08 +++++++++++++++++++to 2.33195e-08
Heightened Def Con from 2.33195e-08 +++++++++++++++++++to 2.33195e-08
Heightened Def Con from 2.33195e-08 +++++++++++++++++++to 2.33195e-08
Heightened Def Con from 2.33195e-08 +++++++++++++++++++to 2.33196e-08
Heightened Def Con from 2.33196e-08 +++++++++++++++++++to 2.33196e-08
Heightened Def Con from 2.33196e-08 +++++++++++++++++++to 2.33196e-08
Heightened Def Con from 2.33196e-08 +++++++++++++++++++to 2.33196e-08
Heightened Def Con from 2.33196e-08 +++++++++++++++++++to 2.33196e-08
Heightened Def Con from 2.33196e-08 +++++++++++++++++++to 2.33196e-08
Heightened Def Con from 2.33196e-08 +++++++++++++++++++to 2.33196e-08
Heightened Def Con from 2.33196e-08 +++++++++++++++++++to 2.33196e-08
Heightened Def Con from 2.33196e-08 +++++++++++++++++++to 2.33196e-08
Heightened Def Con from 2.33196e-08 +++++++++++++++++++to 2.33196e-08
Heightened Def Con from 2.33196e-08 +++++++++++++++++++to 2.33196e-08
Heightened Def Con from 2.33196e-08 +++++++++++++++++++to 2.33196e-08
Heightened Def Con from 2.33196e-08 +++++++++++++++++++to 2.33196e-08
Heightened Def Con from 2.33196e-08 +++++++++++++++++++to 2.33196e-08
Heightened Def Con from 2.33196e-08 +++++++++++++++++++to 2.33196e-08
Heightened Def Con from 2.33196e-08 +++++++++++++++++++to 2.33196e-08
Heightened Def Con from 2.33196e-08 +++++++++++++++++++to 2.33196e-08
Heightened Def Con from 2.33196e-08 +++++++++++++++++++to 2.33196e-08
Heightened Def Con from 2.33196e-08 +++++++++++++++++++to 2.33196e-08
Heightened Def Con from 2.33196e-08 +++++++++++++++++++to 2.33196e-08
Heightened Def Con from 2.33196e-08 +++++++++++++++++++to 2.33196e-08
Heightened Def Con from 2.33196e-08 +++++++++++++++++++to 2.33196e-08
Heightened Def Con from 2.33196e-08 +++++++++++++++++++to 2.33196e-08
Heightened Def Con from 2.33196e-08 +++++++++++++++++++to 2.33196e-08
Heightened Def Con from 2.33196e-08 +++++++++++++++++++to 2.33196e-08
Heightened Def Con from 2.33196e-08 +++++++++++++++++++to 2.33196e-08
Heightened Def Con from 2.33196e-08 +++++++++++++++++++to 2.33196e-08
Heightened Def Con from 2.33196e-08 +++++++++++++++++++to 2.33197e-08
Heightened Def Con from 2.33197e-08 +++++++++++++++++++to 2.33197e-08
Heightened Def Con from 2.33197e-08 +++++++++++++++++++to 2.33197e-08
Heightened Def Con from 2.33197e-08 +++++++++++++++++++to 2.33197e-08
Heightened Def Con from 2.33197e-08 +++++++++++++++++++to 2.33197e-08
Heightened Def Con from 2.33197e-08 +++++++++++++++++++to 2.33197e-08
Heightened Def Con from 2.33197e-08 +++++++++++++++++++to 2.33197e-08
Heightened Def Con from 2.33197e-08 +++++++++++++++++++to 2.33197e-08
Heightened Def Con from 2.33197e-08 +++++++++++++++++++to 2.33197e-08
Heightened Def Con from 2.33197e-08 +++++++++++++++++++to 2.33197e-08
Heightened Def Con from 2.33197e-08 +++++++++++++++++++to 2.33197e-08
Heightened Def Con from 2.33197e-08 +++++++++++++++++++to 2.33197e-08
Heightened Def Con from 2.33197e-08 +++++++++++++++++++to 2.33197e-08
Heightened Def Con from 2.33197e-08 +++++++++++++++++++to 2.33197e-08
Heightened Def Con from 2.33197e-08 +++++++++++++++++++to 2.33197e-08
Heightened Def Con from 2.33197e-08 +++++++++++++++++++to 2.33197e-08
Heightened Def Con from 2.33197e-08 +++++++++++++++++++to 2.33197e-08
Heightened Def Con from 2.33197e-08 +++++++++++++++++++to 2.33197e-08
Heightened Def Con from 2.33197e-08 +++++++++++++++++++to 2.33197e-08
Heightened Def Con from 2.33197e-08 +++++++++++++++++++to 2.33197e-08
Heightened Def Con from 2.33197e-08 +++++++++++++++++++to 2.33197e-08
Heightened Def Con from 2.33197e-08 +++++++++++++++++++to 2.33197e-08
Heightened Def Con from 2.33197e-08 +++++++++++++++++++to 2.33197e-08
Heightened Def Con from 2.33197e-08 +++++++++++++++++++to 2.33197e-08
Heightened Def Con from 2.33197e-08 +++++++++++++++++++to 2.33197e-08
Heightened Def Con from 2.33197e-08 +++++++++++++++++++to 2.33197e-08
Heightened Def Con from 2.33197e-08 +++++++++++++++++++to 2.33198e-08
Heightened Def Con from 2.33198e-08 +++++++++++++++++++to 2.33198e-08
Heightened Def Con from 2.33198e-08 +++++++++++++++++++to 2.33198e-08
Heightened Def Con from 2.33198e-08 +++++++++++++++++++to 2.33198e-08
Heightened Def Con from 2.33198e-08 +++++++++++++++++++to 2.33198e-08
Heightened Def Con from 2.33198e-08 +++++++++++++++++++to 2.33198e-08
Heightened Def Con from 2.33198e-08 +++++++++++++++++++to 2.33198e-08
Heightened Def Con from 2.33198e-08 +++++++++++++++++++to 2.33198e-08
Heightened Def Con from 2.33198e-08 +++++++++++++++++++to 2.33198e-08
Heightened Def Con from 2.33198e-08 +++++++++++++++++++to 2.33198e-08
Heightened Def Con from 2.33198e-08 +++++++++++++++++++to 2.33198e-08
Heightened Def Con from 2.33198e-08 +++++++++++++++++++to 2.33198e-08
Heightened Def Con from 2.33198e-08 +++++++++++++++++++to 2.33198e-08
Heightened Def Con from 2.33198e-08 +++++++++++++++++++to 2.33198e-08
Heightened Def Con from 2.33198e-08 +++++++++++++++++++to 2.33198e-08
Heightened Def Con from 2.33198e-08 +++++++++++++++++++to 2.33198e-08
Heightened Def Con from 2.33198e-08 +++++++++++++++++++to 2.33198e-08
Heightened Def Con from 2.33198e-08 +++++++++++++++++++to 2.33198e-08
Heightened Def Con from 2.33198e-08 +++++++++++++++++++to 2.33198e-08
Heightened Def Con from 2.33198e-08 +++++++++++++++++++to 2.33198e-08
Heightened Def Con from 2.33198e-08 +++++++++++++++++++to 2.33198e-08
Heightened Def Con from 2.33198e-08 +++++++++++++++++++to 2.33198e-08
Heightened Def Con from 2.33198e-08 +++++++++++++++++++to 2.33198e-08
Heightened Def Con from 2.33198e-08 +++++++++++++++++++to 2.33198e-08
Heightened Def Con from 2.33198e-08 +++++++++++++++++++to 2.33198e-08
Heightened Def Con from 2.33198e-08 +++++++++++++++++++to 2.33198e-08
Heightened Def Con from 2.33198e-08 +++++++++++++++++++to 2.33199e-08
Heightened Def Con from 2.33199e-08 +++++++++++++++++++to 2.33199e-08
Heightened Def Con from 2.33199e-08 +++++++++++++++++++to 2.33199e-08
Heightened Def Con from 2.33199e-08 +++++++++++++++++++to 2.33199e-08
Heightened Def Con from 2.33199e-08 +++++++++++++++++++to 2.33199e-08
Heightened Def Con from 2.33199e-08 +++++++++++++++++++to 2.33199e-08
Heightened Def Con from 2.33199e-08 +++++++++++++++++++to 2.33199e-08
Heightened Def Con from 2.33199e-08 +++++++++++++++++++to 2.33199e-08
Heightened Def Con from 2.33199e-08 +++++++++++++++++++to 2.33199e-08
Heightened Def Con from 2.33199e-08 +++++++++++++++++++to 2.33199e-08
Heightened Def Con from 2.33199e-08 +++++++++++++++++++to 2.33199e-08
Heightened Def Con from 2.33199e-08 +++++++++++++++++++to 2.33199e-08
Heightened Def Con from 2.33199e-08 +++++++++++++++++++to 2.33199e-08
Heightened Def Con from 2.33199e-08 +++++++++++++++++++to 2.33199e-08
Heightened Def Con from 2.33199e-08 +++++++++++++++++++to 2.33199e-08
Heightened Def Con from 2.33199e-08 +++++++++++++++++++to 2.33199e-08
Heightened Def Con from 2.33199e-08 +++++++++++++++++++to 2.33199e-08
Heightened Def Con from 2.33199e-08 +++++++++++++++++++to 2.33199e-08
Heightened Def Con from 2.33199e-08 +++++++++++++++++++to 2.33199e-08
Heightened Def Con from 2.33199e-08 +++++++++++++++++++to 2.33199e-08
Heightened Def Con from 2.33199e-08 +++++++++++++++++++to 2.33199e-08
Heightened Def Con from 2.33199e-08 +++++++++++++++++++to 2.33199e-08
Heightened Def Con from 2.33199e-08 +++++++++++++++++++to 2.33199e-08
Heightened Def Con from 2.33199e-08 +++++++++++++++++++to 2.33199e-08
Heightened Def Con from 2.33199e-08 +++++++++++++++++++to 2.33199e-08
Heightened Def Con from 2.33199e-08 +++++++++++++++++++to 2.33199e-08
Heightened Def Con from 2.33199e-08 +++++++++++++++++++to 2.332e-08
Heightened Def Con from 2.332e-08 +++++++++++++++++++to 2.332e-08
Heightened Def Con from 2.332e-08 +++++++++++++++++++to 2.332e-08
Heightened Def Con from 2.332e-08 +++++++++++++++++++to 2.332e-08
Heightened Def Con from 2.332e-08 +++++++++++++++++++to 2.332e-08
Heightened Def Con from 2.332e-08 +++++++++++++++++++to 2.332e-08
Heightened Def Con from 2.332e-08 +++++++++++++++++++to 2.332e-08
Heightened Def Con from 2.332e-08 +++++++++++++++++++to 2.332e-08
Heightened Def Con from 2.332e-08 +++++++++++++++++++to 2.332e-08
Heightened Def Con from 2.332e-08 +++++++++++++++++++to 2.332e-08
Heightened Def Con from 2.332e-08 +++++++++++++++++++to 2.332e-08
Heightened Def Con from 2.332e-08 +++++++++++++++++++to 2.332e-08
Heightened Def Con from 2.332e-08 +++++++++++++++++++to 2.332e-08
Heightened Def Con from 2.332e-08 +++++++++++++++++++to 2.332e-08
Heightened Def Con from 2.332e-08 +++++++++++++++++++to 2.332e-08
Heightened Def Con from 2.332e-08 +++++++++++++++++++to 2.332e-08
Heightened Def Con from 2.332e-08 +++++++++++++++++++to 2.332e-08
Heightened Def Con from 2.332e-08 +++++++++++++++++++to 2.332e-08
Heightened Def Con from 2.332e-08 +++++++++++++++++++to 2.332e-08
Heightened Def Con from 2.332e-08 +++++++++++++++++++to 2.332e-08
Heightened Def Con from 2.332e-08 +++++++++++++++++++to 2.332e-08
Heightened Def Con from 2.332e-08 +++++++++++++++++++to 2.332e-08
Heightened Def Con from 2.332e-08 +++++++++++++++++++to 2.332e-08
Heightened Def Con from 2.332e-08 +++++++++++++++++++to 2.332e-08
Heightened Def Con from 2.332e-08 +++++++++++++++++++to 2.332e-08
Heightened Def Con from 2.332e-08 +++++++++++++++++++to 2.332e-08
Heightened Def Con from 2.332e-08 +++++++++++++++++++to 2.33201e-08
Heightened Def Con from 2.33201e-08 +++++++++++++++++++to 2.33201e-08
Heightened Def Con from 2.33201e-08 +++++++++++++++++++to 2.33201e-08
Heightened Def Con from 2.33201e-08 +++++++++++++++++++to 2.33201e-08
Heightened Def Con from 2.33201e-08 +++++++++++++++++++to 2.33201e-08
Heightened Def Con from 2.33201e-08 +++++++++++++++++++to 2.33201e-08
Heightened Def Con from 2.33201e-08 +++++++++++++++++++to 2.33201e-08
Heightened Def Con from 2.33201e-08 +++++++++++++++++++to 2.33201e-08
Heightened Def Con from 2.33201e-08 +++++++++++++++++++to 2.33201e-08
Heightened Def Con from 2.33201e-08 +++++++++++++++++++to 2.33201e-08
Heightened Def Con from 2.33201e-08 +++++++++++++++++++to 2.33201e-08
Heightened Def Con from 2.33201e-08 +++++++++++++++++++to 2.33201e-08
Heightened Def Con from 2.33201e-08 +++++++++++++++++++to 2.33201e-08
Heightened Def Con from 2.33201e-08 +++++++++++++++++++to 2.33201e-08
Heightened Def Con from 2.33201e-08 +++++++++++++++++++to 2.33201e-08
Heightened Def Con from 2.33201e-08 +++++++++++++++++++to 2.33201e-08
Heightened Def Con from 2.33201e-08 +++++++++++++++++++to 2.33201e-08
Heightened Def Con from 2.33201e-08 +++++++++++++++++++to 2.33201e-08
Heightened Def Con from 2.33201e-08 +++++++++++++++++++to 2.33201e-08
Heightened Def Con from 2.33201e-08 +++++++++++++++++++to 2.33201e-08
Heightened Def Con from 2.33201e-08 +++++++++++++++++++to 2.33201e-08
Heightened Def Con from 2.33201e-08 +++++++++++++++++++to 2.33201e-08
Heightened Def Con from 2.33201e-08 +++++++++++++++++++to 2.33201e-08
Heightened Def Con from 2.33201e-08 +++++++++++++++++++to 2.33201e-08
Heightened Def Con from 2.33201e-08 +++++++++++++++++++to 2.33201e-08
Heightened Def Con from 2.33201e-08 +++++++++++++++++++to 2.33201e-08
Heightened Def Con from 2.33201e-08 +++++++++++++++++++to 2.33201e-08
Heightened Def Con from 2.33201e-08 +++++++++++++++++++to 2.33202e-08
Heightened Def Con from 2.33202e-08 +++++++++++++++++++to 2.33202e-08
Heightened Def Con from 2.33202e-08 +++++++++++++++++++to 2.33202e-08
Heightened Def Con from 2.33202e-08 +++++++++++++++++++to 2.33202e-08
Heightened Def Con from 2.33202e-08 +++++++++++++++++++to 2.33202e-08
Heightened Def Con from 2.33202e-08 +++++++++++++++++++to 2.33202e-08
Heightened Def Con from 2.33202e-08 +++++++++++++++++++to 2.33202e-08
Heightened Def Con from 2.33202e-08 +++++++++++++++++++to 2.33202e-08
Heightened Def Con from 2.33202e-08 +++++++++++++++++++to 2.33202e-08
Heightened Def Con from 2.33202e-08 +++++++++++++++++++to 2.33202e-08
Heightened Def Con from 2.33202e-08 ++++++++++++++++++++++++++++++++++++++++++++++++++Fatal Error: Analysis:  Time step too small; time = 2.33202e-08, timestep = 1.25e-19: trouble with u4:qx-instance q:u4:2

