Circuit: * D:\Engineering\PYTHON\Analog-Computer\Simulations\Power Supply\power_supply.asc

.OP point found by inspection.

Date: Fri Oct 18 11:41:29 2024
Total elapsed time: 0.138 seconds.

tnom = 27
temp = 27
method = modified trap
totiter = 2472
traniter = 2472
tranpoints = 1237
accept = 1198
rejected = 39
matrix size = 6
fillins = 0
solver = Normal
Avg thread counts: 2.1/3.2/3.2/2.1
Matrix Compiler1:      12 opcodes  0.3/[0.2]/0.3
Matrix Compiler2: off  [0.2]/0.3/0.2

